REMARK SMILES CC(C)NCC(O)COc1cccc2[nH]c3ccccc3c12
REMARK SMILES IDX 6 1 5 2 4 3 2 5 1 6 3 7 7 8 8 10 9 11 10 12 11 13 22 14
REMARK SMILES IDX 12 15 21 16 14 17 13 18 20 19 16 20 15 21 19 22 17 23 18 24
REMARK H PARENT 4 4 7 9 15 25
ROOT
ATOM      1  C   UNL     1      -1.597   0.344  -1.824  1.00  0.00     0.165 C
ENDROOT
BRANCH   1   2
ATOM      2  C   UNL     1      -1.805   0.548  -0.311  1.00  0.00     0.116 C
BRANCH   2   3
ATOM      3  N   UNL     1      -2.658  -0.525   0.225  1.00  0.00    -0.312 NA
ATOM      4  H   UNL     1      -3.524  -0.537  -0.319  1.00  0.00     0.123 HD
BRANCH   3   5
ATOM      5  C   UNL     1      -2.944  -0.376   1.654  1.00  0.00     0.047 C
ATOM      6  C   UNL     1      -3.971   0.723   1.935  1.00  0.00     0.024 C
ATOM      7  C   UNL     1      -3.473  -1.718   2.164  1.00  0.00     0.024 C
ENDBRANCH   3   5
ENDBRANCH   2   3
ENDBRANCH   1   2
BRANCH   1   8
ATOM      8  O   UNL     1      -2.881   0.338  -2.475  1.00  0.00    -0.388 OA
ATOM      9  H   UNL     1      -2.772  -0.170  -3.298  1.00  0.00     0.211 HD
ENDBRANCH   1   8
BRANCH   1  10
ATOM     10  C   UNL     1      -0.738   1.465  -2.435  1.00  0.00     0.262 C
BRANCH  10  11
ATOM     11  O   UNL     1       0.577   1.565  -1.885  1.00  0.00    -0.490 OA
BRANCH  11  12
ATOM     12  C   UNL     1       1.419   0.511  -2.142  1.00  0.00     0.129 A
ATOM     13  C   UNL     1       1.534  -0.075  -3.412  1.00  0.00     0.047 A
ATOM     14  C   UNL     1       2.240   0.030  -1.093  1.00  0.00     0.049 A
ATOM     15  C   UNL     1       2.394  -1.151  -3.631  1.00  0.00     0.006 A
ATOM     16  C   UNL     1       2.437   0.404   0.281  1.00  0.00     0.011 A
ATOM     17  C   UNL     1       3.083  -1.053  -1.346  1.00  0.00     0.050 A
ATOM     18  C   UNL     1       3.176  -1.669  -2.598  1.00  0.00     0.027 A
ATOM     19  C   UNL     1       1.906   1.413   1.112  1.00  0.00     0.011 A
ATOM     20  C   UNL     1       3.373  -0.473   0.827  1.00  0.00     0.047 A
ATOM     21  N   UNL     1       3.741  -1.340  -0.173  1.00  0.00    -0.354 N
ATOM     22  C   UNL     1       2.318   1.502   2.446  1.00  0.00     0.001 A
ATOM     23  C   UNL     1       3.798  -0.401   2.159  1.00  0.00     0.027 A
ATOM     24  C   UNL     1       3.250   0.605   2.960  1.00  0.00     0.002 A
ATOM     25  H   UNL     1       4.414  -2.084  -0.063  1.00  0.00     0.167 HD
ENDBRANCH  11  12
ENDBRANCH  10  11
ENDBRANCH   1  10
TORSDOF 7
