
     RDKit          3D

 73 73  0  0  0  0  0  0  0  0999 V2000
    8.8046   -2.4599   -0.5887 C   0  0  0  0  0  0  0  0  0  0  0  0
    9.1749   -1.3405    0.0483 C   0  0  0  0  0  0  0  0  0  0  0  0
    8.7342    0.0399   -0.3565 C   0  0  0  0  0  0  0  0  0  0  0  0
    7.8378    0.6931    0.6753 C   0  0  0  0  0  0  0  0  0  0  0  0
    8.4182    1.4792    1.6873 C   0  0  0  0  0  0  0  0  0  0  0  0
    7.6258    2.0850    2.6593 C   0  0  0  0  0  0  0  0  0  0  0  0
    6.2470    1.9047    2.6364 C   0  0  0  0  0  0  0  0  0  0  0  0
    5.6566    1.1209    1.6408 C   0  0  0  0  0  0  0  0  0  0  0  0
    6.4405    0.5131    0.6544 C   0  0  0  0  0  0  0  0  0  0  0  0
    5.9573   -0.2801   -0.3522 O   0  0  0  0  0  0  0  0  0  0  0  0
    4.5475   -0.3322   -0.5881 C   0  0  0  0  0  0  0  0  0  0  0  0
    3.8789   -1.4590    0.2169 C   0  0  0  0  0  0  0  0  0  0  0  0
    4.2081   -2.7350   -0.3592 O   0  0  0  0  0  0  0  0  0  0  0  0
    2.3389   -1.3209    0.2401 C   0  0  0  0  0  0  0  0  0  0  0  0
    1.7666   -1.6195   -1.0847 N   0  0  0  0  0  0  0  0  0  0  0  0
    0.2899   -1.5620   -1.1495 C   0  0  0  0  0  0  0  0  0  0  0  0
   -0.3760   -2.6329   -0.2797 C   0  0  0  0  0  0  0  0  0  0  0  0
   -0.2946   -0.1597   -0.8661 C   0  0  0  0  0  0  0  0  0  0  0  0
   -1.6616   -0.1216   -1.2809 O   0  0  0  0  0  0  0  0  0  0  0  0
   -2.3116    1.1300   -1.0156 C   0  0  0  0  0  0  0  0  0  0  0  0
   -1.8693    2.1915   -2.0251 C   0  0  0  0  0  0  0  0  0  0  0  0
   -3.8298    0.8982   -1.1015 C   0  0  0  0  0  0  0  0  0  0  0  0
   -4.5219    2.1083   -0.7854 O   0  0  0  0  0  0  0  0  0  0  0  0
   -5.9249    2.0661   -1.0981 C   0  0  0  0  0  0  0  0  0  0  0  0
   -6.4233    3.5028   -0.9722 C   0  0  0  0  0  0  0  0  0  0  0  0
   -6.7133    1.1449   -0.1491 C   0  0  0  0  0  0  0  0  0  0  0  0
   -6.5886   -0.2109   -0.5878 O   0  0  0  0  0  0  0  0  0  0  0  0
   -7.5387   -1.1103   -0.0096 C   0  0  0  0  0  0  0  0  0  0  0  0
   -7.4014   -1.3778    1.5131 C   0  0  0  0  0  0  0  0  0  0  0  0
   -8.2554   -0.4348    2.3626 C   0  0  0  0  0  0  0  0  0  0  0  0
   -6.0163   -1.3375    1.9923 N   0  0  0  0  0  0  0  0  0  0  0  0
    9.1483   -3.4357   -0.2554 H   0  0  0  0  0  0  0  0  0  0  0  0
    8.1271   -2.4280   -1.4384 H   0  0  0  0  0  0  0  0  0  0  0  0
    9.8372   -1.4162    0.9076 H   0  0  0  0  0  0  0  0  0  0  0  0
    9.6289    0.6594   -0.5048 H   0  0  0  0  0  0  0  0  0  0  0  0
    8.2355    0.0296   -1.3342 H   0  0  0  0  0  0  0  0  0  0  0  0
    9.4965    1.6189    1.7192 H   0  0  0  0  0  0  0  0  0  0  0  0
    8.0837    2.6904    3.4362 H   0  0  0  0  0  0  0  0  0  0  0  0
    5.6283    2.3690    3.4001 H   0  0  0  0  0  0  0  0  0  0  0  0
    4.5812    0.9958    1.6779 H   0  0  0  0  0  0  0  0  0  0  0  0
    4.0809    0.6446   -0.4172 H   0  0  0  0  0  0  0  0  0  0  0  0
    4.4414   -0.5403   -1.6596 H   0  0  0  0  0  0  0  0  0  0  0  0
    4.2592   -1.4738    1.2432 H   0  0  0  0  0  0  0  0  0  0  0  0
    3.4773   -2.9326   -0.9804 H   0  0  0  0  0  0  0  0  0  0  0  0
    1.9580   -2.0493    0.9639 H   0  0  0  0  0  0  0  0  0  0  0  0
    2.0641   -0.3181    0.5827 H   0  0  0  0  0  0  0  0  0  0  0  0
    2.1376   -0.9686   -1.7786 H   0  0  0  0  0  0  0  0  0  0  0  0
    0.0281   -1.8174   -2.1853 H   0  0  0  0  0  0  0  0  0  0  0  0
    0.0671   -3.6181   -0.4627 H   0  0  0  0  0  0  0  0  0  0  0  0
   -1.4451   -2.7100   -0.5113 H   0  0  0  0  0  0  0  0  0  0  0  0
   -0.2864   -2.4078    0.7887 H   0  0  0  0  0  0  0  0  0  0  0  0
    0.2751    0.5851   -1.4326 H   0  0  0  0  0  0  0  0  0  0  0  0
   -0.2290    0.0803    0.2017 H   0  0  0  0  0  0  0  0  0  0  0  0
   -2.0709    1.4708   -0.0006 H   0  0  0  0  0  0  0  0  0  0  0  0
   -2.4259    3.1257   -1.9013 H   0  0  0  0  0  0  0  0  0  0  0  0
   -2.0062    1.8314   -3.0514 H   0  0  0  0  0  0  0  0  0  0  0  0
   -0.8078    2.4276   -1.9093 H   0  0  0  0  0  0  0  0  0  0  0  0
   -4.0962    0.5540   -2.1086 H   0  0  0  0  0  0  0  0  0  0  0  0
   -4.1073    0.1130   -0.3904 H   0  0  0  0  0  0  0  0  0  0  0  0
   -6.0438    1.7406   -2.1397 H   0  0  0  0  0  0  0  0  0  0  0  0
   -6.2832    3.8823    0.0473 H   0  0  0  0  0  0  0  0  0  0  0  0
   -7.4846    3.5804   -1.2305 H   0  0  0  0  0  0  0  0  0  0  0  0
   -5.8584    4.1647   -1.6377 H   0  0  0  0  0  0  0  0  0  0  0  0
   -7.7736    1.4197   -0.1537 H   0  0  0  0  0  0  0  0  0  0  0  0
   -6.3076    1.2318    0.8620 H   0  0  0  0  0  0  0  0  0  0  0  0
   -8.5541   -0.7864   -0.2688 H   0  0  0  0  0  0  0  0  0  0  0  0
   -7.3753   -2.0640   -0.5274 H   0  0  0  0  0  0  0  0  0  0  0  0
   -7.7916   -2.3882    1.6891 H   0  0  0  0  0  0  0  0  0  0  0  0
   -7.9334    0.6077    2.2914 H   0  0  0  0  0  0  0  0  0  0  0  0
   -8.2062   -0.7211    3.4197 H   0  0  0  0  0  0  0  0  0  0  0  0
   -9.3058   -0.4852    2.0591 H   0  0  0  0  0  0  0  0  0  0  0  0
   -5.4126   -1.8449    1.3441 H   0  0  0  0  0  0  0  0  0  0  0  0
   -5.9511   -1.7999    2.8987 H   0  0  0  0  0  0  0  0  0  0  0  0
  1  2  2  0
  2  3  1  0
  3  4  1  0
  4  5  2  0
  5  6  1  0
  6  7  2  0
  7  8  1  0
  8  9  2  0
  9 10  1  0
 10 11  1  0
 11 12  1  0
 12 13  1  0
 12 14  1  0
 14 15  1  0
 15 16  1  0
 16 17  1  0
 16 18  1  0
 18 19  1  0
 19 20  1  0
 20 21  1  0
 20 22  1  0
 22 23  1  0
 23 24  1  0
 24 25  1  0
 24 26  1  0
 26 27  1  0
 27 28  1  0
 28 29  1  0
 29 30  1  0
 29 31  1  0
  9  4  1  0
  1 32  1  0
  1 33  1  0
  2 34  1  0
  3 35  1  0
  3 36  1  0
  5 37  1  0
  6 38  1  0
  7 39  1  0
  8 40  1  0
 11 41  1  0
 11 42  1  0
 12 43  1  0
 13 44  1  0
 14 45  1  0
 14 46  1  0
 15 47  1  0
 16 48  1  0
 17 49  1  0
 17 50  1  0
 17 51  1  0
 18 52  1  0
 18 53  1  0
 20 54  1  0
 21 55  1  0
 21 56  1  0
 21 57  1  0
 22 58  1  0
 22 59  1  0
 24 60  1  0
 25 61  1  0
 25 62  1  0
 25 63  1  0
 26 64  1  0
 26 65  1  0
 28 66  1  0
 28 67  1  0
 29 68  1  0
 30 69  1  0
 30 70  1  0
 30 71  1  0
 31 72  1  0
 31 73  1  0
M  END
$$$$
