
     RDKit          3D

 40 41  0  0  0  0  0  0  0  0999 V2000
    5.6310    0.4626   -0.0537 C   0  0  0  0  0  0  0  0  0  0  0  0
    4.3233   -0.2043    0.3778 C   0  0  0  0  0  0  0  0  0  0  0  0
    4.6016   -1.6302    0.8567 C   0  0  0  0  0  0  0  0  0  0  0  0
    3.4025   -0.1631   -0.7664 N   0  0  0  0  0  0  0  0  0  0  0  0
    2.0173   -0.5165   -0.3981 C   0  0  0  0  0  0  0  0  0  0  0  0
    1.0966   -0.2401   -1.6034 C   0  0  0  0  0  0  0  0  0  0  0  0
    1.2518    1.1330   -1.9969 O   0  0  0  0  0  0  0  0  0  0  0  0
   -0.3791   -0.5429   -1.3133 C   0  0  0  0  0  0  0  0  0  0  0  0
   -0.7769    0.0272   -0.0553 O   0  0  0  0  0  0  0  0  0  0  0  0
   -1.9762    0.6883   -0.1572 C   0  0  0  0  0  0  0  0  0  0  0  0
   -2.0028    1.9369   -0.7834 C   0  0  0  0  0  0  0  0  0  0  0  0
   -3.2003    2.6376   -0.8758 C   0  0  0  0  0  0  0  0  0  0  0  0
   -4.3657    2.0976   -0.3295 C   0  0  0  0  0  0  0  0  0  0  0  0
   -4.3489    0.8542    0.3259 C   0  0  0  0  0  0  0  0  0  0  0  0
   -5.5199    0.3180    0.8873 C   0  0  0  0  0  0  0  0  0  0  0  0
   -5.5009   -0.9122    1.5461 C   0  0  0  0  0  0  0  0  0  0  0  0
   -4.3108   -1.6229    1.6546 C   0  0  0  0  0  0  0  0  0  0  0  0
   -3.1390   -1.1052    1.1007 C   0  0  0  0  0  0  0  0  0  0  0  0
   -3.1350    0.1338    0.4264 C   0  0  0  0  0  0  0  0  0  0  0  0
    6.1070   -0.0778   -0.8800 H   0  0  0  0  0  0  0  0  0  0  0  0
    6.3414    0.4953    0.7796 H   0  0  0  0  0  0  0  0  0  0  0  0
    5.4567    1.4944   -0.3793 H   0  0  0  0  0  0  0  0  0  0  0  0
    3.9110    0.3825    1.2077 H   0  0  0  0  0  0  0  0  0  0  0  0
    3.6997   -2.1036    1.2570 H   0  0  0  0  0  0  0  0  0  0  0  0
    5.3493   -1.6280    1.6575 H   0  0  0  0  0  0  0  0  0  0  0  0
    4.9843   -2.2587    0.0448 H   0  0  0  0  0  0  0  0  0  0  0  0
    3.7344   -0.7975   -1.4945 H   0  0  0  0  0  0  0  0  0  0  0  0
    1.9398   -1.5691   -0.1076 H   0  0  0  0  0  0  0  0  0  0  0  0
    1.7118    0.1107    0.4471 H   0  0  0  0  0  0  0  0  0  0  0  0
    1.4130   -0.8450   -2.4617 H   0  0  0  0  0  0  0  0  0  0  0  0
    2.1872    1.3400   -1.7895 H   0  0  0  0  0  0  0  0  0  0  0  0
   -0.5158   -1.6270   -1.2257 H   0  0  0  0  0  0  0  0  0  0  0  0
   -0.9975   -0.1933   -2.1508 H   0  0  0  0  0  0  0  0  0  0  0  0
   -1.0900    2.3590   -1.1965 H   0  0  0  0  0  0  0  0  0  0  0  0
   -3.2261    3.6058   -1.3685 H   0  0  0  0  0  0  0  0  0  0  0  0
   -5.2920    2.6623   -0.4113 H   0  0  0  0  0  0  0  0  0  0  0  0
   -6.4602    0.8604    0.8175 H   0  0  0  0  0  0  0  0  0  0  0  0
   -6.4152   -1.3115    1.9769 H   0  0  0  0  0  0  0  0  0  0  0  0
   -4.2908   -2.5786    2.1714 H   0  0  0  0  0  0  0  0  0  0  0  0
   -2.2162   -1.6724    1.2003 H   0  0  0  0  0  0  0  0  0  0  0  0
  1  2  1  0
  2  3  1  0
  2  4  1  0
  4  5  1  0
  5  6  1  0
  6  7  1  0
  6  8  1  0
  8  9  1  0
  9 10  1  0
 10 11  2  0
 11 12  1  0
 12 13  2  0
 13 14  1  0
 14 15  2  0
 15 16  1  0
 16 17  2  0
 17 18  1  0
 18 19  2  0
 19 10  1  0
 19 14  1  0
  1 20  1  0
  1 21  1  0
  1 22  1  0
  2 23  1  0
  3 24  1  0
  3 25  1  0
  3 26  1  0
  4 27  1  0
  5 28  1  0
  5 29  1  0
  6 30  1  0
  7 31  1  0
  8 32  1  0
  8 33  1  0
 11 34  1  0
 12 35  1  0
 13 36  1  0
 15 37  1  0
 16 38  1  0
 17 39  1  0
 18 40  1  0
M  END
$$$$
