
     RDKit          3D

 60 61  0  0  0  0  0  0  0  0999 V2000
    6.6855   -0.6459    2.2366 C   0  0  0  0  0  0  0  0  0  0  0  0
    5.9080    0.1223    1.3184 O   0  0  0  0  0  0  0  0  0  0  0  0
    6.2512   -0.0510    0.0198 C   0  0  0  0  0  0  0  0  0  0  0  0
    7.1743   -0.7418   -0.3865 O   0  0  0  0  0  0  0  0  0  0  0  0
    5.4092    0.7790   -0.8776 C   0  0  0  0  0  0  0  0  0  0  0  0
    6.0027    1.2199   -2.0723 C   0  0  0  0  0  0  0  0  0  0  0  0
    5.2729    1.9749   -2.9931 C   0  0  0  0  0  0  0  0  0  0  0  0
    3.9376    2.2789   -2.7394 C   0  0  0  0  0  0  0  0  0  0  0  0
    3.3345    1.8358   -1.5624 C   0  0  0  0  0  0  0  0  0  0  0  0
    4.0722    1.1091   -0.6191 C   0  0  0  0  0  0  0  0  0  0  0  0
    3.4165    0.6302    0.4833 O   0  0  0  0  0  0  0  0  0  0  0  0
    3.1313    1.6792    1.4282 C   0  0  0  0  0  0  0  0  0  0  0  0
    2.0838    1.1766    2.4346 C   0  0  0  0  0  0  0  0  0  0  0  0
    2.4235   -0.1423    2.8847 O   0  0  0  0  0  0  0  0  0  0  0  0
    0.6359    1.1818    1.8894 C   0  0  0  0  0  0  0  0  0  0  0  0
    0.4668    0.3259    0.7125 N   0  0  0  0  0  0  0  0  0  0  0  0
   -0.8936    0.2447    0.1307 C   0  0  0  0  0  0  0  0  0  0  0  0
   -1.3521    1.6353   -0.3499 C   0  0  0  0  0  0  0  0  0  0  0  0
   -0.7398   -0.6600   -1.1088 C   0  0  0  0  0  0  0  0  0  0  0  0
   -1.9289   -0.3597    1.1340 C   0  0  0  0  0  0  0  0  0  0  0  0
   -3.2721   -0.5391    0.6020 N   0  0  0  0  0  0  0  0  0  0  0  0
   -3.6827   -1.7287    0.0629 C   0  0  0  0  0  0  0  0  0  0  0  0
   -2.9408   -2.7060    0.0084 O   0  0  0  0  0  0  0  0  0  0  0  0
   -4.9855   -1.7574   -0.3975 N   0  0  0  0  0  0  0  0  0  0  0  0
   -5.3742   -2.8772   -1.2606 C   0  0  0  0  0  0  0  0  0  0  0  0
   -6.8506   -3.2414   -1.0992 C   0  0  0  0  0  0  0  0  0  0  0  0
   -7.6874   -2.0901   -1.2833 O   0  0  0  0  0  0  0  0  0  0  0  0
   -7.3808   -1.0995   -0.2952 C   0  0  0  0  0  0  0  0  0  0  0  0
   -5.9256   -0.6311   -0.4031 C   0  0  0  0  0  0  0  0  0  0  0  0
    7.7297   -0.3196    2.2165 H   0  0  0  0  0  0  0  0  0  0  0  0
    6.2878   -0.4767    3.2411 H   0  0  0  0  0  0  0  0  0  0  0  0
    6.6078   -1.7139    2.0099 H   0  0  0  0  0  0  0  0  0  0  0  0
    7.0384    0.9661   -2.2933 H   0  0  0  0  0  0  0  0  0  0  0  0
    5.7424    2.3074   -3.9158 H   0  0  0  0  0  0  0  0  0  0  0  0
    3.3592    2.8431   -3.4669 H   0  0  0  0  0  0  0  0  0  0  0  0
    2.2789    2.0344   -1.3906 H   0  0  0  0  0  0  0  0  0  0  0  0
    2.7799    2.6013    0.9497 H   0  0  0  0  0  0  0  0  0  0  0  0
    4.0600    1.9000    1.9674 H   0  0  0  0  0  0  0  0  0  0  0  0
    2.1044    1.8313    3.3135 H   0  0  0  0  0  0  0  0  0  0  0  0
    2.8106   -0.5872    2.1038 H   0  0  0  0  0  0  0  0  0  0  0  0
    0.3674    2.2164    1.6529 H   0  0  0  0  0  0  0  0  0  0  0  0
   -0.0178    0.8310    2.6948 H   0  0  0  0  0  0  0  0  0  0  0  0
    0.7843   -0.6172    0.9520 H   0  0  0  0  0  0  0  0  0  0  0  0
   -1.5824    2.3011    0.4888 H   0  0  0  0  0  0  0  0  0  0  0  0
   -0.5815    2.1184   -0.9627 H   0  0  0  0  0  0  0  0  0  0  0  0
   -2.2550    1.5662   -0.9671 H   0  0  0  0  0  0  0  0  0  0  0  0
   -0.4531   -1.6801   -0.8279 H   0  0  0  0  0  0  0  0  0  0  0  0
   -1.6689   -0.7178   -1.6861 H   0  0  0  0  0  0  0  0  0  0  0  0
    0.0306   -0.2755   -1.7890 H   0  0  0  0  0  0  0  0  0  0  0  0
   -2.0525    0.3072    1.9942 H   0  0  0  0  0  0  0  0  0  0  0  0
   -1.5643   -1.3205    1.5170 H   0  0  0  0  0  0  0  0  0  0  0  0
   -3.7488    0.2936    0.3037 H   0  0  0  0  0  0  0  0  0  0  0  0
   -4.7525   -3.7582   -1.0738 H   0  0  0  0  0  0  0  0  0  0  0  0
   -5.1861   -2.5468   -2.2894 H   0  0  0  0  0  0  0  0  0  0  0  0
   -7.0453   -3.6706   -0.1094 H   0  0  0  0  0  0  0  0  0  0  0  0
   -7.1365   -3.9859   -1.8484 H   0  0  0  0  0  0  0  0  0  0  0  0
   -8.0565   -0.2523   -0.4483 H   0  0  0  0  0  0  0  0  0  0  0  0
   -7.5859   -1.5125    0.6996 H   0  0  0  0  0  0  0  0  0  0  0  0
   -5.7697   -0.1030   -1.3510 H   0  0  0  0  0  0  0  0  0  0  0  0
   -5.7164    0.0606    0.4171 H   0  0  0  0  0  0  0  0  0  0  0  0
  1  2  1  0
  2  3  1  0
  3  4  2  0
  3  5  1  0
  5  6  2  0
  6  7  1  0
  7  8  2  0
  8  9  1  0
  9 10  2  0
 10 11  1  0
 11 12  1  0
 12 13  1  0
 13 14  1  0
 13 15  1  0
 15 16  1  0
 16 17  1  0
 17 18  1  0
 17 19  1  0
 17 20  1  0
 20 21  1  0
 21 22  1  0
 22 23  2  0
 22 24  1  0
 24 25  1  0
 25 26  1  0
 26 27  1  0
 27 28  1  0
 28 29  1  0
 10  5  1  0
 29 24  1  0
  1 30  1  0
  1 31  1  0
  1 32  1  0
  6 33  1  0
  7 34  1  0
  8 35  1  0
  9 36  1  0
 12 37  1  0
 12 38  1  0
 13 39  1  0
 14 40  1  0
 15 41  1  0
 15 42  1  0
 16 43  1  0
 18 44  1  0
 18 45  1  0
 18 46  1  0
 19 47  1  0
 19 48  1  0
 19 49  1  0
 20 50  1  0
 20 51  1  0
 21 52  1  0
 25 53  1  0
 25 54  1  0
 26 55  1  0
 26 56  1  0
 28 57  1  0
 28 58  1  0
 29 59  1  0
 29 60  1  0
M  END
$$$$
