
     RDKit          3D

 32 32  0  0  0  0  0  0  0  0999 V2000
   -3.7313    0.9492    0.2611 C   0  0  0  0  0  0  0  0  0  0  0  0
   -3.4583   -0.2879   -0.5954 C   0  0  0  0  0  0  0  0  0  0  0  0
   -3.3544    0.0795   -2.0770 C   0  0  0  0  0  0  0  0  0  0  0  0
   -2.3097   -1.0746   -0.1351 N   0  0  0  0  0  0  0  0  0  0  0  0
   -1.0429   -0.3370    0.0051 C   0  0  0  0  0  0  0  0  0  0  0  0
    0.1669   -1.2726    0.2772 C   0  0  0  0  0  0  0  0  0  0  0  0
    0.0285   -1.9308    1.5391 O   0  0  0  0  0  0  0  0  0  0  0  0
    1.4793   -0.5131    0.2587 C   0  0  0  0  0  0  0  0  0  0  0  0
    1.8216    0.3646    1.3060 C   0  0  0  0  0  0  0  0  0  0  0  0
    3.0270    1.0730    1.2868 C   0  0  0  0  0  0  0  0  0  0  0  0
    3.8925    0.9040    0.2145 C   0  0  0  0  0  0  0  0  0  0  0  0
    5.0856    1.5673    0.1356 O   0  0  0  0  0  0  0  0  0  0  0  0
    3.5619    0.0404   -0.8261 C   0  0  0  0  0  0  0  0  0  0  0  0
    4.4185   -0.1190   -1.8777 O   0  0  0  0  0  0  0  0  0  0  0  0
    2.3676   -0.6674   -0.8157 C   0  0  0  0  0  0  0  0  0  0  0  0
   -4.6856    1.4063   -0.0233 H   0  0  0  0  0  0  0  0  0  0  0  0
   -2.9539    1.7114    0.1424 H   0  0  0  0  0  0  0  0  0  0  0  0
   -3.7962    0.6851    1.3223 H   0  0  0  0  0  0  0  0  0  0  0  0
   -4.3316   -0.9439   -0.4906 H   0  0  0  0  0  0  0  0  0  0  0  0
   -2.5508    0.7977   -2.2688 H   0  0  0  0  0  0  0  0  0  0  0  0
   -3.1722   -0.8094   -2.6908 H   0  0  0  0  0  0  0  0  0  0  0  0
   -4.2902    0.5318   -2.4238 H   0  0  0  0  0  0  0  0  0  0  0  0
   -2.1767   -1.8854   -0.7371 H   0  0  0  0  0  0  0  0  0  0  0  0
   -1.1376    0.3660    0.8407 H   0  0  0  0  0  0  0  0  0  0  0  0
   -0.8361    0.2371   -0.9048 H   0  0  0  0  0  0  0  0  0  0  0  0
    0.1925   -2.0609   -0.4854 H   0  0  0  0  0  0  0  0  0  0  0  0
    0.8966   -2.3087    1.7579 H   0  0  0  0  0  0  0  0  0  0  0  0
    1.1406    0.4944    2.1469 H   0  0  0  0  0  0  0  0  0  0  0  0
    3.2643    1.7411    2.1084 H   0  0  0  0  0  0  0  0  0  0  0  0
    5.1722    2.1269    0.9267 H   0  0  0  0  0  0  0  0  0  0  0  0
    5.1734    0.4668   -1.6681 H   0  0  0  0  0  0  0  0  0  0  0  0
    2.1386   -1.3318   -1.6446 H   0  0  0  0  0  0  0  0  0  0  0  0
  1  2  1  0
  2  3  1  0
  2  4  1  0
  4  5  1  0
  5  6  1  0
  6  7  1  0
  6  8  1  0
  8  9  2  0
  9 10  1  0
 10 11  2  0
 11 12  1  0
 11 13  1  0
 13 14  1  0
 13 15  2  0
 15  8  1  0
  1 16  1  0
  1 17  1  0
  1 18  1  0
  2 19  1  0
  3 20  1  0
  3 21  1  0
  3 22  1  0
  4 23  1  0
  5 24  1  0
  5 25  1  0
  6 26  1  0
  7 27  1  0
  9 28  1  0
 10 29  1  0
 12 30  1  0
 14 31  1  0
 15 32  1  0
M  END
$$$$
