
     RDKit          3D

 48 49  0  0  0  0  0  0  0  0999 V2000
   -1.1688    1.6751    1.2470 C   0  0  0  0  0  0  0  0  0  0  0  0
   -1.2878    0.4063    0.3971 C   0  0  0  0  0  0  0  0  0  0  0  0
   -2.7197   -0.1752    0.4494 C   0  0  0  0  0  0  0  0  0  0  0  0
   -3.7822    0.7676   -0.1275 C   0  0  0  0  0  0  0  0  0  0  0  0
   -5.1261    0.0888   -0.2412 C   0  0  0  0  0  0  0  0  0  0  0  0
   -5.9679   -0.0096    0.8749 C   0  0  0  0  0  0  0  0  0  0  0  0
   -7.2040   -0.6499    0.7743 C   0  0  0  0  0  0  0  0  0  0  0  0
   -7.6081   -1.2004   -0.4405 C   0  0  0  0  0  0  0  0  0  0  0  0
   -6.7759   -1.1130   -1.5551 C   0  0  0  0  0  0  0  0  0  0  0  0
   -5.5392   -0.4733   -1.4563 C   0  0  0  0  0  0  0  0  0  0  0  0
   -0.3748   -0.6518    0.8648 N   0  0  0  0  0  0  0  0  0  0  0  0
    1.0659   -0.3489    0.7636 C   0  0  0  0  0  0  0  0  0  0  0  0
    1.6307   -0.1440   -0.6714 C   0  0  0  0  0  0  0  0  0  0  0  0
    1.2745    1.1431   -1.1803 O   0  0  0  0  0  0  0  0  0  0  0  0
    3.1406   -0.2800   -0.7644 C   0  0  0  0  0  0  0  0  0  0  0  0
    3.7075   -0.9495   -1.8577 C   0  0  0  0  0  0  0  0  0  0  0  0
    5.0934   -1.0710   -1.9843 C   0  0  0  0  0  0  0  0  0  0  0  0
    5.9379   -0.5121   -1.0219 C   0  0  0  0  0  0  0  0  0  0  0  0
    7.2930   -0.6498   -1.1816 O   0  0  0  0  0  0  0  0  0  0  0  0
    5.4019    0.1786    0.0743 C   0  0  0  0  0  0  0  0  0  0  0  0
    6.2150    0.8258    1.1489 C   0  0  0  0  0  0  0  0  0  0  0  0
    7.5706    0.7012    1.0879 N   0  0  0  0  0  0  0  0  0  0  0  0
    5.6893    1.4535    2.0616 O   0  0  0  0  0  0  0  0  0  0  0  0
    4.0029    0.2897    0.1876 C   0  0  0  0  0  0  0  0  0  0  0  0
   -1.3917    1.4713    2.3001 H   0  0  0  0  0  0  0  0  0  0  0  0
   -0.1672    2.1119    1.1898 H   0  0  0  0  0  0  0  0  0  0  0  0
   -1.8573    2.4519    0.9011 H   0  0  0  0  0  0  0  0  0  0  0  0
   -1.0751    0.6477   -0.6494 H   0  0  0  0  0  0  0  0  0  0  0  0
   -2.7431   -1.1162   -0.1183 H   0  0  0  0  0  0  0  0  0  0  0  0
   -2.9817   -0.4346    1.4844 H   0  0  0  0  0  0  0  0  0  0  0  0
   -3.4702    1.1280   -1.1157 H   0  0  0  0  0  0  0  0  0  0  0  0
   -3.8970    1.6584    0.5009 H   0  0  0  0  0  0  0  0  0  0  0  0
   -5.6631    0.4119    1.8302 H   0  0  0  0  0  0  0  0  0  0  0  0
   -7.8506   -0.7201    1.6448 H   0  0  0  0  0  0  0  0  0  0  0  0
   -8.5704   -1.6990   -0.5180 H   0  0  0  0  0  0  0  0  0  0  0  0
   -7.0894   -1.5444   -2.5019 H   0  0  0  0  0  0  0  0  0  0  0  0
   -4.8992   -0.4166   -2.3337 H   0  0  0  0  0  0  0  0  0  0  0  0
   -0.5645   -1.5049    0.3385 H   0  0  0  0  0  0  0  0  0  0  0  0
    1.5796   -1.2057    1.2181 H   0  0  0  0  0  0  0  0  0  0  0  0
    1.3019    0.5118    1.3980 H   0  0  0  0  0  0  0  0  0  0  0  0
    1.1667   -0.8908   -1.3274 H   0  0  0  0  0  0  0  0  0  0  0  0
    1.9400    1.7794   -0.8674 H   0  0  0  0  0  0  0  0  0  0  0  0
    3.0676   -1.3797   -2.6270 H   0  0  0  0  0  0  0  0  0  0  0  0
    5.4922   -1.6010   -2.8450 H   0  0  0  0  0  0  0  0  0  0  0  0
    7.4640   -1.1519   -1.9977 H   0  0  0  0  0  0  0  0  0  0  0  0
    8.1359    1.1483    1.7946 H   0  0  0  0  0  0  0  0  0  0  0  0
    8.0131    0.2070    0.3203 H   0  0  0  0  0  0  0  0  0  0  0  0
    3.5911    0.8361    1.0359 H   0  0  0  0  0  0  0  0  0  0  0  0
  1  2  1  0
  2  3  1  0
  3  4  1  0
  4  5  1  0
  5  6  2  0
  6  7  1  0
  7  8  2  0
  8  9  1  0
  9 10  2  0
  2 11  1  0
 11 12  1  0
 12 13  1  0
 13 14  1  0
 13 15  1  0
 15 16  2  0
 16 17  1  0
 17 18  2  0
 18 19  1  0
 18 20  1  0
 20 21  1  0
 21 22  1  0
 21 23  2  0
 20 24  2  0
 10  5  1  0
 24 15  1  0
  1 25  1  0
  1 26  1  0
  1 27  1  0
  2 28  1  0
  3 29  1  0
  3 30  1  0
  4 31  1  0
  4 32  1  0
  6 33  1  0
  7 34  1  0
  8 35  1  0
  9 36  1  0
 10 37  1  0
 11 38  1  0
 12 39  1  0
 12 40  1  0
 13 41  1  0
 14 42  1  0
 16 43  1  0
 17 44  1  0
 19 45  1  0
 22 46  1  0
 22 47  1  0
 24 48  1  0
M  END
$$$$
