
     RDKit          3D

 54 59  0  0  0  0  0  0  0  0999 V2000
   -5.8164   -1.5808    2.1991 C   0  0  0  0  0  0  0  0  0  0  0  0
   -5.7241   -0.6074    1.1632 O   0  0  0  0  0  0  0  0  0  0  0  0
   -4.4636   -0.3345    0.6931 C   0  0  0  0  0  0  0  0  0  0  0  0
   -3.2685   -0.7625    1.2687 C   0  0  0  0  0  0  0  0  0  0  0  0
   -2.0286   -0.4281    0.6899 C   0  0  0  0  0  0  0  0  0  0  0  0
   -0.7472   -0.9490    1.3379 C   0  0  2  0  0  0  0  0  0  0  0  0
    0.4440   -0.0527    1.1309 C   0  0  0  0  0  0  0  0  0  0  0  0
    0.5604    1.2008    1.6589 N   0  0  0  0  0  0  0  0  0  0  0  0
    1.7481    1.7711    1.2578 C   0  0  0  0  0  0  0  0  0  0  0  0
    2.2484    3.0424    1.5513 C   0  0  0  0  0  0  0  0  0  0  0  0
    3.4963    3.3899    1.0337 C   0  0  0  0  0  0  0  0  0  0  0  0
    4.2394    2.4989    0.2539 C   0  0  0  0  0  0  0  0  0  0  0  0
    5.4982    2.8714   -0.2442 C   0  0  0  0  0  0  0  0  0  0  0  0
    6.2552    1.9886   -1.0148 C   0  0  0  0  0  0  0  0  0  0  0  0
    5.7664    0.7179   -1.2963 C   0  0  0  0  0  0  0  0  0  0  0  0
    4.5160    0.3266   -0.8130 C   0  0  0  0  0  0  0  0  0  0  0  0
    3.7279    1.2060   -0.0378 C   0  0  0  0  0  0  0  0  0  0  0  0
    2.4359    0.8394    0.4682 C   0  0  0  0  0  0  0  0  0  0  0  0
    1.5810   -0.3103    0.3805 C   0  0  0  0  0  0  0  0  0  0  0  0
    1.7573   -1.6222   -0.3231 C   0  0  0  0  0  0  0  0  0  0  0  0
    0.4241   -2.3912   -0.3802 C   0  0  1  0  0  0  0  0  0  0  0  0
    0.5751   -3.8946   -0.4643 C   0  0  0  0  0  0  0  0  0  0  0  0
   -0.5355   -4.4154    0.2856 O   0  0  0  0  0  0  0  0  0  0  0  0
   -1.0017   -3.4264    1.1110 C   0  0  0  0  0  0  0  0  0  0  0  0
   -1.8556   -3.5995    1.9645 O   0  0  0  0  0  0  0  0  0  0  0  0
   -0.3705   -2.2529    0.8128 N   0  0  0  0  0  0  0  0  0  0  0  0
   -2.0184    0.3408   -0.4930 C   0  0  0  0  0  0  0  0  0  0  0  0
   -3.2059    0.7996   -1.0698 C   0  0  0  0  0  0  0  0  0  0  0  0
   -3.2852    1.5631   -2.2037 O   0  0  0  0  0  0  0  0  0  0  0  0
   -2.0678    2.0272   -2.7694 C   0  0  0  0  0  0  0  0  0  0  0  0
   -4.4179    0.4532   -0.4646 C   0  0  0  0  0  0  0  0  0  0  0  0
   -5.6017    0.8847   -1.0152 O   0  0  0  0  0  0  0  0  0  0  0  0
   -5.3663   -2.5315    1.8940 H   0  0  0  0  0  0  0  0  0  0  0  0
   -5.3690   -1.2084    3.1263 H   0  0  0  0  0  0  0  0  0  0  0  0
   -6.8782   -1.7618    2.3918 H   0  0  0  0  0  0  0  0  0  0  0  0
   -3.2712   -1.3739    2.1675 H   0  0  0  0  0  0  0  0  0  0  0  0
   -0.9178   -1.0605    2.4169 H   0  0  0  0  0  0  0  0  0  0  0  0
   -0.1297    1.6632    2.2363 H   0  0  0  0  0  0  0  0  0  0  0  0
    1.6906    3.7445    2.1634 H   0  0  0  0  0  0  0  0  0  0  0  0
    3.8901    4.3796    1.2581 H   0  0  0  0  0  0  0  0  0  0  0  0
    5.9037    3.8585   -0.0319 H   0  0  0  0  0  0  0  0  0  0  0  0
    7.2286    2.2935   -1.3901 H   0  0  0  0  0  0  0  0  0  0  0  0
    6.3593    0.0274   -1.8904 H   0  0  0  0  0  0  0  0  0  0  0  0
    4.1757   -0.6755   -1.0427 H   0  0  0  0  0  0  0  0  0  0  0  0
    2.1238   -1.4782   -1.3445 H   0  0  0  0  0  0  0  0  0  0  0  0
    2.5110   -2.1989    0.2271 H   0  0  0  0  0  0  0  0  0  0  0  0
   -0.1878   -2.0295   -1.2170 H   0  0  0  0  0  0  0  0  0  0  0  0
    0.5243   -4.2554   -1.4959 H   0  0  0  0  0  0  0  0  0  0  0  0
    1.4952   -4.2691   -0.0032 H   0  0  0  0  0  0  0  0  0  0  0  0
   -1.0640    0.5735   -0.9549 H   0  0  0  0  0  0  0  0  0  0  0  0
   -2.3172    2.6678   -3.6208 H   0  0  0  0  0  0  0  0  0  0  0  0
   -1.4668    1.1932   -3.1463 H   0  0  0  0  0  0  0  0  0  0  0  0
   -1.5013    2.6318   -2.0532 H   0  0  0  0  0  0  0  0  0  0  0  0
   -6.2982    0.5155   -0.4406 H   0  0  0  0  0  0  0  0  0  0  0  0
  1  2  1  0
  2  3  1  0
  3  4  2  0
  4  5  1  0
  5  6  1  0
  6  7  1  0
  7  8  1  0
  8  9  1  0
  9 10  2  0
 10 11  1  0
 11 12  2  0
 12 13  1  0
 13 14  2  0
 14 15  1  0
 15 16  2  0
 16 17  1  0
 17 18  2  0
 18 19  1  0
 19 20  1  0
 20 21  1  0
 21 22  1  0
 22 23  1  0
 23 24  1  0
 24 25  2  0
 24 26  1  0
  5 27  2  0
 27 28  1  0
 28 29  1  0
 29 30  1  0
 28 31  2  0
 31 32  1  0
 31  3  1  0
 26  6  1  0
 19  7  2  0
 26 21  1  0
 18  9  1  0
 17 12  1  0
  1 33  1  0
  1 34  1  0
  1 35  1  0
  4 36  1  0
  6 37  1  1
  8 38  1  0
 10 39  1  0
 11 40  1  0
 13 41  1  0
 14 42  1  0
 15 43  1  0
 16 44  1  0
 20 45  1  0
 20 46  1  0
 21 47  1  6
 22 48  1  0
 22 49  1  0
 27 50  1  0
 30 51  1  0
 30 52  1  0
 30 53  1  0
 32 54  1  0
M  END
$$$$
