
     RDKit          3D

 52 53  0  0  0  0  0  0  0  0999 V2000
    7.5058    3.0813    0.4823 C   0  0  0  0  0  0  0  0  0  0  0  0
    6.3275    2.8787    1.2519 O   0  0  0  0  0  0  0  0  0  0  0  0
    5.3459    2.1110    0.6885 C   0  0  0  0  0  0  0  0  0  0  0  0
    4.2124    1.9360    1.4847 C   0  0  0  0  0  0  0  0  0  0  0  0
    3.1325    1.1744    1.0322 C   0  0  0  0  0  0  0  0  0  0  0  0
    3.1704    0.5776   -0.2326 C   0  0  0  0  0  0  0  0  0  0  0  0
    2.0118   -0.2572   -0.7197 C   0  0  0  0  0  0  0  0  0  0  0  0
    2.0808   -1.6911   -0.1806 C   0  0  0  0  0  0  0  0  0  0  0  0
    0.9816   -2.6147   -0.7515 C   0  0  1  0  0  0  0  0  0  0  0  0
    1.2942   -4.0620   -0.3537 C   0  0  0  0  0  0  0  0  0  0  0  0
   -0.3453   -2.2258   -0.2416 N   0  0  0  0  0  0  0  0  0  0  0  0
   -1.4448   -2.7372   -1.0857 C   0  0  0  0  0  0  0  0  0  0  0  0
   -2.8163   -2.4621   -0.4334 C   0  0  1  0  0  0  0  0  0  0  0  0
   -2.7909   -2.9988    0.9000 O   0  0  0  0  0  0  0  0  0  0  0  0
   -3.1609   -0.9654   -0.3880 C   0  0  0  0  0  0  0  0  0  0  0  0
   -4.5585   -0.8234   -0.1118 O   0  0  0  0  0  0  0  0  0  0  0  0
   -5.0586    0.4471   -0.0434 C   0  0  0  0  0  0  0  0  0  0  0  0
   -4.3303    1.6285   -0.2009 C   0  0  0  0  0  0  0  0  0  0  0  0
   -4.9715    2.8695   -0.1081 C   0  0  0  0  0  0  0  0  0  0  0  0
   -6.3390    2.9207    0.1422 C   0  0  0  0  0  0  0  0  0  0  0  0
   -7.0003    4.1084    0.2399 O   0  0  0  0  0  0  0  0  0  0  0  0
   -7.0740    1.7542    0.3022 C   0  0  0  0  0  0  0  0  0  0  0  0
   -6.4315    0.5188    0.2098 C   0  0  0  0  0  0  0  0  0  0  0  0
    4.3107    0.7488   -1.0268 C   0  0  0  0  0  0  0  0  0  0  0  0
    5.3913    1.5126   -0.5703 C   0  0  0  0  0  0  0  0  0  0  0  0
    8.0164    2.1329    0.2847 H   0  0  0  0  0  0  0  0  0  0  0  0
    8.1843    3.7083    1.0687 H   0  0  0  0  0  0  0  0  0  0  0  0
    7.2828    3.6127   -0.4488 H   0  0  0  0  0  0  0  0  0  0  0  0
    4.1712    2.3958    2.4692 H   0  0  0  0  0  0  0  0  0  0  0  0
    2.2653    1.0502    1.6765 H   0  0  0  0  0  0  0  0  0  0  0  0
    2.0066   -0.2699   -1.8169 H   0  0  0  0  0  0  0  0  0  0  0  0
    1.0797    0.2353   -0.4195 H   0  0  0  0  0  0  0  0  0  0  0  0
    2.0293   -1.6820    0.9167 H   0  0  0  0  0  0  0  0  0  0  0  0
    3.0634   -2.1120   -0.4341 H   0  0  0  0  0  0  0  0  0  0  0  0
    1.0062   -2.5315   -1.8457 H   0  0  0  0  0  0  0  0  0  0  0  0
    2.2975   -4.3465   -0.6897 H   0  0  0  0  0  0  0  0  0  0  0  0
    1.2565   -4.1937    0.7337 H   0  0  0  0  0  0  0  0  0  0  0  0
    0.5940   -4.7713   -0.8049 H   0  0  0  0  0  0  0  0  0  0  0  0
   -0.4124   -1.2106   -0.1989 H   0  0  0  0  0  0  0  0  0  0  0  0
   -1.4038   -2.2916   -2.0861 H   0  0  0  0  0  0  0  0  0  0  0  0
   -1.3482   -3.8228   -1.1920 H   0  0  0  0  0  0  0  0  0  0  0  0
   -3.5972   -3.0041   -0.9783 H   0  0  0  0  0  0  0  0  0  0  0  0
   -1.8686   -2.8824    1.2070 H   0  0  0  0  0  0  0  0  0  0  0  0
   -2.5860   -0.4749    0.4065 H   0  0  0  0  0  0  0  0  0  0  0  0
   -2.9407   -0.5113   -1.3614 H   0  0  0  0  0  0  0  0  0  0  0  0
   -3.2634    1.6207   -0.3935 H   0  0  0  0  0  0  0  0  0  0  0  0
   -4.3896    3.7772   -0.2320 H   0  0  0  0  0  0  0  0  0  0  0  0
   -6.3618    4.8308    0.1255 H   0  0  0  0  0  0  0  0  0  0  0  0
   -8.1407    1.8025    0.4999 H   0  0  0  0  0  0  0  0  0  0  0  0
   -7.0043   -0.3965    0.3385 H   0  0  0  0  0  0  0  0  0  0  0  0
    4.3691    0.2871   -2.0100 H   0  0  0  0  0  0  0  0  0  0  0  0
    6.2516    1.6177   -1.2224 H   0  0  0  0  0  0  0  0  0  0  0  0
  1  2  1  0
  2  3  1  0
  3  4  2  0
  4  5  1  0
  5  6  2  0
  6  7  1  0
  7  8  1  0
  8  9  1  0
  9 10  1  0
  9 11  1  0
 11 12  1  0
 12 13  1  0
 13 14  1  0
 13 15  1  0
 15 16  1  0
 16 17  1  0
 17 18  2  0
 18 19  1  0
 19 20  2  0
 20 21  1  0
 20 22  1  0
 22 23  2  0
  6 24  1  0
 24 25  2  0
 25  3  1  0
 23 17  1  0
  1 26  1  0
  1 27  1  0
  1 28  1  0
  4 29  1  0
  5 30  1  0
  7 31  1  0
  7 32  1  0
  8 33  1  0
  8 34  1  0
  9 35  1  6
 10 36  1  0
 10 37  1  0
 10 38  1  0
 11 39  1  0
 12 40  1  0
 12 41  1  0
 13 42  1  6
 14 43  1  0
 15 44  1  0
 15 45  1  0
 18 46  1  0
 19 47  1  0
 21 48  1  0
 22 49  1  0
 23 50  1  0
 24 51  1  0
 25 52  1  0
M  END
$$$$
