
     RDKit          3D

 38 38  0  0  0  0  0  0  0  0999 V2000
   -3.9489   -2.2613   -1.6454 C   0  0  0  0  0  0  0  0  0  0  0  0
   -3.0812   -1.7154   -0.6626 O   0  0  0  0  0  0  0  0  0  0  0  0
   -3.2181   -0.3817   -0.3633 C   0  0  0  0  0  0  0  0  0  0  0  0
   -4.1425    0.4749   -0.9718 C   0  0  0  0  0  0  0  0  0  0  0  0
   -4.2039    1.8204   -0.6057 C   0  0  0  0  0  0  0  0  0  0  0  0
   -3.3450    2.3170    0.3694 C   0  0  0  0  0  0  0  0  0  0  0  0
   -2.4187    1.4718    0.9839 C   0  0  0  0  0  0  0  0  0  0  0  0
   -2.3444    0.1225    0.6230 C   0  0  0  0  0  0  0  0  0  0  0  0
   -1.4742   -0.7869    1.1689 O   0  0  0  0  0  0  0  0  0  0  0  0
   -0.4269   -0.3305    2.0179 C   0  0  0  0  0  0  0  0  0  0  0  0
    0.7606    0.2631    1.2403 C   0  0  0  0  0  0  0  0  0  0  0  0
    1.7226    0.7342    2.1934 O   0  0  0  0  0  0  0  0  0  0  0  0
    1.3778   -0.7775    0.2715 C   0  0  0  0  0  0  0  0  0  0  0  0
    2.3407   -0.2504   -0.7091 N   0  0  0  0  0  0  0  0  0  0  0  0
    3.6154    0.2463   -0.1827 C   0  0  0  0  0  0  0  0  0  0  0  0
    4.4142    0.8197   -1.3587 C   0  0  0  0  0  0  0  0  0  0  0  0
    4.4380   -0.8469    0.5012 C   0  0  0  0  0  0  0  0  0  0  0  0
   -4.9959   -2.1879   -1.3334 H   0  0  0  0  0  0  0  0  0  0  0  0
   -3.7907   -1.7868   -2.6194 H   0  0  0  0  0  0  0  0  0  0  0  0
   -3.7081   -3.3235   -1.7511 H   0  0  0  0  0  0  0  0  0  0  0  0
   -4.8292    0.1263   -1.7354 H   0  0  0  0  0  0  0  0  0  0  0  0
   -4.9248    2.4803   -1.0822 H   0  0  0  0  0  0  0  0  0  0  0  0
   -3.3959    3.3648    0.6557 H   0  0  0  0  0  0  0  0  0  0  0  0
   -1.7739    1.9027    1.7420 H   0  0  0  0  0  0  0  0  0  0  0  0
   -0.7918    0.3480    2.7982 H   0  0  0  0  0  0  0  0  0  0  0  0
   -0.0720   -1.2076    2.5745 H   0  0  0  0  0  0  0  0  0  0  0  0
    0.4266    1.1296    0.6600 H   0  0  0  0  0  0  0  0  0  0  0  0
    2.2102   -0.0400    2.5244 H   0  0  0  0  0  0  0  0  0  0  0  0
    0.5726   -1.2305   -0.3185 H   0  0  0  0  0  0  0  0  0  0  0  0
    1.8326   -1.5983    0.8366 H   0  0  0  0  0  0  0  0  0  0  0  0
    1.8861    0.4955   -1.2378 H   0  0  0  0  0  0  0  0  0  0  0  0
    3.4485    1.0697    0.5183 H   0  0  0  0  0  0  0  0  0  0  0  0
    4.6280    0.0533   -2.1126 H   0  0  0  0  0  0  0  0  0  0  0  0
    3.8673    1.6337   -1.8479 H   0  0  0  0  0  0  0  0  0  0  0  0
    5.3707    1.2280   -1.0142 H   0  0  0  0  0  0  0  0  0  0  0  0
    3.9583   -1.2039    1.4174 H   0  0  0  0  0  0  0  0  0  0  0  0
    4.5900   -1.7064   -0.1613 H   0  0  0  0  0  0  0  0  0  0  0  0
    5.4258   -0.4661    0.7840 H   0  0  0  0  0  0  0  0  0  0  0  0
  1  2  1  0
  2  3  1  0
  3  4  2  0
  4  5  1  0
  5  6  2  0
  6  7  1  0
  7  8  2  0
  8  9  1  0
  9 10  1  0
 10 11  1  0
 11 12  1  0
 11 13  1  0
 13 14  1  0
 14 15  1  0
 15 16  1  0
 15 17  1  0
  8  3  1  0
  1 18  1  0
  1 19  1  0
  1 20  1  0
  4 21  1  0
  5 22  1  0
  6 23  1  0
  7 24  1  0
 10 25  1  0
 10 26  1  0
 11 27  1  0
 12 28  1  0
 13 29  1  0
 13 30  1  0
 14 31  1  0
 15 32  1  0
 16 33  1  0
 16 34  1  0
 16 35  1  0
 17 36  1  0
 17 37  1  0
 17 38  1  0
M  END
$$$$
