
     RDKit          3D

 54 59  0  0  0  0  0  0  0  0999 V2000
   -5.4597   -1.3265    3.1727 C   0  0  0  0  0  0  0  0  0  0  0  0
   -5.4625   -0.3315    2.1534 O   0  0  0  0  0  0  0  0  0  0  0  0
   -4.3000   -0.1894    1.4373 C   0  0  0  0  0  0  0  0  0  0  0  0
   -3.0714   -0.7658    1.7552 C   0  0  0  0  0  0  0  0  0  0  0  0
   -1.9438   -0.5576    0.9373 C   0  0  0  0  0  0  0  0  0  0  0  0
   -0.6277   -1.2390    1.3068 C   0  0  2  0  0  0  0  0  0  0  0  0
    0.5924   -0.4721    0.8730 C   0  0  0  0  0  0  0  0  0  0  0  0
    0.9576    0.7546    1.3593 N   0  0  0  0  0  0  0  0  0  0  0  0
    2.0942    1.1927    0.7133 C   0  0  0  0  0  0  0  0  0  0  0  0
    2.8111    2.3860    0.8678 C   0  0  0  0  0  0  0  0  0  0  0  0
    3.9567    2.5864    0.0777 C   0  0  0  0  0  0  0  0  0  0  0  0
    4.7090    3.7661    0.1950 C   0  0  0  0  0  0  0  0  0  0  0  0
    5.8480    3.9715   -0.5852 C   0  0  0  0  0  0  0  0  0  0  0  0
    6.2510    2.9989   -1.4937 C   0  0  0  0  0  0  0  0  0  0  0  0
    5.5150    1.8203   -1.6231 C   0  0  0  0  0  0  0  0  0  0  0  0
    4.3663    1.5986   -0.8461 C   0  0  0  0  0  0  0  0  0  0  0  0
    3.6239    0.4100   -0.9784 C   0  0  0  0  0  0  0  0  0  0  0  0
    2.4724    0.2030   -0.1942 C   0  0  0  0  0  0  0  0  0  0  0  0
    1.5201   -0.8453   -0.0851 C   0  0  0  0  0  0  0  0  0  0  0  0
    1.4347   -2.1577   -0.7960 C   0  0  0  0  0  0  0  0  0  0  0  0
    0.0256   -2.7550   -0.6232 C   0  0  1  0  0  0  0  0  0  0  0  0
   -0.0293   -4.2619   -0.7497 C   0  0  0  0  0  0  0  0  0  0  0  0
   -1.0313   -4.6737    0.1956 O   0  0  0  0  0  0  0  0  0  0  0  0
   -1.2137   -3.6638    1.1029 C   0  0  0  0  0  0  0  0  0  0  0  0
   -1.9035   -3.7661    2.1037 O   0  0  0  0  0  0  0  0  0  0  0  0
   -0.5186   -2.5602    0.6991 N   0  0  0  0  0  0  0  0  0  0  0  0
   -2.0832    0.2383   -0.2192 C   0  0  0  0  0  0  0  0  0  0  0  0
   -3.3007    0.8458   -0.5387 C   0  0  0  0  0  0  0  0  0  0  0  0
   -3.5174    1.6457   -1.6287 O   0  0  0  0  0  0  0  0  0  0  0  0
   -2.3895    2.0043   -2.4138 C   0  0  0  0  0  0  0  0  0  0  0  0
   -4.3976    0.6212    0.2989 C   0  0  0  0  0  0  0  0  0  0  0  0
   -5.6096    1.1996    0.0036 O   0  0  0  0  0  0  0  0  0  0  0  0
   -4.7957   -1.0415    3.9952 H   0  0  0  0  0  0  0  0  0  0  0  0
   -5.1945   -2.3098    2.7698 H   0  0  0  0  0  0  0  0  0  0  0  0
   -6.4755   -1.3943    3.5742 H   0  0  0  0  0  0  0  0  0  0  0  0
   -2.9639   -1.3984    2.6326 H   0  0  0  0  0  0  0  0  0  0  0  0
   -0.5905   -1.3694    2.3964 H   0  0  0  0  0  0  0  0  0  0  0  0
    0.4579    1.2827    2.0628 H   0  0  0  0  0  0  0  0  0  0  0  0
    2.4874    3.1359    1.5835 H   0  0  0  0  0  0  0  0  0  0  0  0
    4.4118    4.5395    0.8999 H   0  0  0  0  0  0  0  0  0  0  0  0
    6.4189    4.8904   -0.4814 H   0  0  0  0  0  0  0  0  0  0  0  0
    7.1378    3.1554   -2.1021 H   0  0  0  0  0  0  0  0  0  0  0  0
    5.8471    1.0718   -2.3391 H   0  0  0  0  0  0  0  0  0  0  0  0
    3.9320   -0.3544   -1.6858 H   0  0  0  0  0  0  0  0  0  0  0  0
    2.1899   -2.8229   -0.3589 H   0  0  0  0  0  0  0  0  0  0  0  0
    1.6684   -2.0491   -1.8605 H   0  0  0  0  0  0  0  0  0  0  0  0
   -0.6752   -2.2922   -1.3304 H   0  0  0  0  0  0  0  0  0  0  0  0
   -0.3205   -4.5787   -1.7554 H   0  0  0  0  0  0  0  0  0  0  0  0
    0.9090   -4.7584   -0.4805 H   0  0  0  0  0  0  0  0  0  0  0  0
   -1.2216    0.3730   -0.8658 H   0  0  0  0  0  0  0  0  0  0  0  0
   -2.7277    2.7008   -3.1871 H   0  0  0  0  0  0  0  0  0  0  0  0
   -1.9676    1.1284   -2.9174 H   0  0  0  0  0  0  0  0  0  0  0  0
   -1.6322    2.5181   -1.8121 H   0  0  0  0  0  0  0  0  0  0  0  0
   -6.2137    0.8957    0.7067 H   0  0  0  0  0  0  0  0  0  0  0  0
  1  2  1  0
  2  3  1  0
  3  4  2  0
  4  5  1  0
  5  6  1  0
  6  7  1  0
  7  8  1  0
  8  9  1  0
  9 10  2  0
 10 11  1  0
 11 12  2  0
 12 13  1  0
 13 14  2  0
 14 15  1  0
 15 16  2  0
 16 17  1  0
 17 18  2  0
 18 19  1  0
 19 20  1  0
 20 21  1  0
 21 22  1  0
 22 23  1  0
 23 24  1  0
 24 25  2  0
 24 26  1  0
  5 27  2  0
 27 28  1  0
 28 29  1  0
 29 30  1  0
 28 31  2  0
 31 32  1  0
 31  3  1  0
 26  6  1  0
 19  7  2  0
 26 21  1  0
 18  9  1  0
 16 11  1  0
  1 33  1  0
  1 34  1  0
  1 35  1  0
  4 36  1  0
  6 37  1  1
  8 38  1  0
 10 39  1  0
 12 40  1  0
 13 41  1  0
 14 42  1  0
 15 43  1  0
 17 44  1  0
 20 45  1  0
 20 46  1  0
 21 47  1  6
 22 48  1  0
 22 49  1  0
 27 50  1  0
 30 51  1  0
 30 52  1  0
 30 53  1  0
 32 54  1  0
M  END
$$$$
