
     RDKit          3D

 37 37  0  0  0  0  0  0  0  0999 V2000
   -3.7225   -1.1796   -2.0155 C   0  0  0  0  0  0  0  0  0  0  0  0
   -3.7684   -0.5512   -0.6505 C   0  0  0  0  0  0  0  0  0  0  0  0
   -4.8762   -0.7625    0.1822 C   0  0  0  0  0  0  0  0  0  0  0  0
   -4.9245   -0.1948    1.4571 C   0  0  0  0  0  0  0  0  0  0  0  0
   -3.8672    0.5936    1.9080 C   0  0  0  0  0  0  0  0  0  0  0  0
   -2.7545    0.8032    1.0944 C   0  0  0  0  0  0  0  0  0  0  0  0
   -2.6923    0.2127   -0.1709 C   0  0  0  0  0  0  0  0  0  0  0  0
   -1.6288    0.4090   -1.0118 O   0  0  0  0  0  0  0  0  0  0  0  0
   -0.3590    0.1404   -0.3858 C   0  0  0  0  0  0  0  0  0  0  0  0
    0.6769    0.0074   -1.5084 C   0  0  0  0  0  0  0  0  0  0  0  0
    0.8209    1.2665   -2.1884 O   0  0  0  0  0  0  0  0  0  0  0  0
    2.0575   -0.4461   -0.9972 C   0  0  0  0  0  0  0  0  0  0  0  0
    2.6017    0.5028   -0.0102 N   0  0  0  0  0  0  0  0  0  0  0  0
    4.0028    0.2276    0.3310 C   0  0  0  0  0  0  0  0  0  0  0  0
    4.5550    1.4336    1.0916 C   0  0  0  0  0  0  0  0  0  0  0  0
    4.1469   -1.0292    1.1901 C   0  0  0  0  0  0  0  0  0  0  0  0
   -3.4784   -0.4301   -2.7761 H   0  0  0  0  0  0  0  0  0  0  0  0
   -4.6893   -1.6183   -2.2899 H   0  0  0  0  0  0  0  0  0  0  0  0
   -2.9717   -1.9772   -2.0333 H   0  0  0  0  0  0  0  0  0  0  0  0
   -5.7133   -1.3695   -0.1580 H   0  0  0  0  0  0  0  0  0  0  0  0
   -5.7890   -0.3604    2.0920 H   0  0  0  0  0  0  0  0  0  0  0  0
   -3.9142    1.0495    2.8937 H   0  0  0  0  0  0  0  0  0  0  0  0
   -1.9576    1.4463    1.4528 H   0  0  0  0  0  0  0  0  0  0  0  0
   -0.4030   -0.7924    0.1893 H   0  0  0  0  0  0  0  0  0  0  0  0
   -0.1007    0.9832    0.2640 H   0  0  0  0  0  0  0  0  0  0  0  0
    0.3177   -0.7105   -2.2553 H   0  0  0  0  0  0  0  0  0  0  0  0
   -0.0875    1.5673   -2.3833 H   0  0  0  0  0  0  0  0  0  0  0  0
    1.9661   -1.4468   -0.5586 H   0  0  0  0  0  0  0  0  0  0  0  0
    2.7371   -0.4990   -1.8578 H   0  0  0  0  0  0  0  0  0  0  0  0
    2.5356    1.4330   -0.4398 H   0  0  0  0  0  0  0  0  0  0  0  0
    4.5962    0.1125   -0.5829 H   0  0  0  0  0  0  0  0  0  0  0  0
    5.6043    1.2739    1.3616 H   0  0  0  0  0  0  0  0  0  0  0  0
    3.9955    1.6242    2.0129 H   0  0  0  0  0  0  0  0  0  0  0  0
    4.5087    2.3386    0.4739 H   0  0  0  0  0  0  0  0  0  0  0  0
    3.5305   -0.9655    2.0928 H   0  0  0  0  0  0  0  0  0  0  0  0
    5.1893   -1.1615    1.5044 H   0  0  0  0  0  0  0  0  0  0  0  0
    3.8554   -1.9305    0.6417 H   0  0  0  0  0  0  0  0  0  0  0  0
  1  2  1  0
  2  3  2  0
  3  4  1  0
  4  5  2  0
  5  6  1  0
  6  7  2  0
  7  8  1  0
  8  9  1  0
  9 10  1  0
 10 11  1  0
 10 12  1  0
 12 13  1  0
 13 14  1  0
 14 15  1  0
 14 16  1  0
  7  2  1  0
  1 17  1  0
  1 18  1  0
  1 19  1  0
  3 20  1  0
  4 21  1  0
  5 22  1  0
  6 23  1  0
  9 24  1  0
  9 25  1  0
 10 26  1  0
 11 27  1  0
 12 28  1  0
 12 29  1  0
 13 30  1  0
 14 31  1  0
 15 32  1  0
 15 33  1  0
 15 34  1  0
 16 35  1  0
 16 36  1  0
 16 37  1  0
M  END
$$$$
