REMARK SMILES CC(C)NCC(O)COc1ccc(CC(N)=O)cc1
REMARK SMILES IDX 8 1 6 2 5 3 4 4 2 6 1 7 3 8 7 9 9 11 10 12 11 13 19 14 12 15
REMARK SMILES IDX 18 16 13 17 14 18 15 19 16 20 17 21
REMARK H PARENT 4 5 7 10 16 22 16 23
ROOT
ATOM      1  C   UNL     1       0.748   0.407   0.742  1.00  0.00     0.262 C
ENDROOT
BRANCH   1   2
ATOM      2  C   UNL     1       2.092   0.750   0.081  1.00  0.00     0.165 C
BRANCH   2   3
ATOM      3  C   UNL     1       2.534  -0.331  -0.926  1.00  0.00     0.116 C
BRANCH   3   4
ATOM      4  N   UNL     1       3.753  -0.004  -1.677  1.00  0.00    -0.312 NA
ATOM      5  H   UNL     1       3.652   0.948  -2.038  1.00  0.00     0.123 HD
BRANCH   4   6
ATOM      6  C   UNL     1       5.048  -0.124  -0.995  1.00  0.00     0.047 C
ATOM      7  C   UNL     1       5.167  -1.285  -0.008  1.00  0.00     0.024 C
ATOM      8  C   UNL     1       5.493   1.192  -0.350  1.00  0.00     0.024 C
ENDBRANCH   4   6
ENDBRANCH   3   4
ENDBRANCH   2   3
BRANCH   2   9
ATOM      9  O   UNL     1       1.981   2.013  -0.595  1.00  0.00    -0.388 OA
ATOM     10  H   UNL     1       1.201   1.937  -1.178  1.00  0.00     0.211 HD
ENDBRANCH   2   9
ENDBRANCH   1   2
BRANCH   1  11
ATOM     11  O   UNL     1      -0.254   0.302  -0.277  1.00  0.00    -0.491 OA
BRANCH  11  12
ATOM     12  C   UNL     1      -1.511  -0.059   0.122  1.00  0.00     0.119 A
ATOM     13  C   UNL     1      -2.419  -0.256  -0.920  1.00  0.00     0.047 A
ATOM     14  C   UNL     1      -1.937  -0.230   1.438  1.00  0.00     0.047 A
ATOM     15  C   UNL     1      -3.740  -0.626  -0.656  1.00  0.00     0.008 A
ATOM     16  C   UNL     1      -3.259  -0.600   1.707  1.00  0.00     0.008 A
ATOM     17  C   UNL     1      -4.173  -0.799   0.663  1.00  0.00    -0.038 A
BRANCH  17  18
ATOM     18  C   UNL     1      -5.601  -1.188   0.962  1.00  0.00     0.135 C
BRANCH  18  19
ATOM     19  C   UNL     1      -6.379  -0.112   1.695  1.00  0.00     0.221 C
ATOM     20  N   UNL     1      -6.467   1.098   1.064  1.00  0.00    -0.369 N
ATOM     21  O   UNL     1      -6.945  -0.301   2.767  1.00  0.00    -0.275 OA
ATOM     22  H   UNL     1      -5.761   1.369   0.392  1.00  0.00     0.159 HD
ATOM     23  H   UNL     1      -6.897   1.841   1.601  1.00  0.00     0.159 HD
ENDBRANCH  18  19
ENDBRANCH  17  18
ENDBRANCH  11  12
ENDBRANCH   1  11
TORSDOF 9
