REMARK SMILES CC(C)NCC(O)COc1cccc2ccccc12
REMARK SMILES IDX 5 1 4 2 2 4 1 5 3 6 6 7 7 8 8 10 9 11 10 12 11 13 19 14
REMARK SMILES IDX 12 15 18 16 14 17 13 18 17 19 15 20 16 21
REMARK H PARENT 4 3 7 9
ROOT
ATOM      1  C   UNL     1       2.017  -0.517  -0.398  1.00  0.00     0.116 C
ENDROOT
BRANCH   1   2
ATOM      2  N   UNL     1       3.402  -0.163  -0.766  1.00  0.00    -0.312 NA
ATOM      3  H   UNL     1       3.734  -0.798  -1.495  1.00  0.00     0.123 HD
BRANCH   2   4
ATOM      4  C   UNL     1       4.323  -0.204   0.378  1.00  0.00     0.047 C
ATOM      5  C   UNL     1       5.631   0.463  -0.054  1.00  0.00     0.024 C
ATOM      6  C   UNL     1       4.602  -1.630   0.857  1.00  0.00     0.024 C
ENDBRANCH   2   4
ENDBRANCH   1   2
BRANCH   1   7
ATOM      7  C   UNL     1       1.097  -0.240  -1.603  1.00  0.00     0.165 C
BRANCH   7   8
ATOM      8  O   UNL     1       1.252   1.133  -1.997  1.00  0.00    -0.388 OA
ATOM      9  H   UNL     1       2.187   1.340  -1.789  1.00  0.00     0.211 HD
ENDBRANCH   7   8
BRANCH   7  10
ATOM     10  C   UNL     1      -0.379  -0.543  -1.313  1.00  0.00     0.262 C
BRANCH  10  11
ATOM     11  O   UNL     1      -0.777   0.027  -0.055  1.00  0.00    -0.490 OA
BRANCH  11  12
ATOM     12  C   UNL     1      -1.976   0.688  -0.157  1.00  0.00     0.127 A
ATOM     13  C   UNL     1      -2.003   1.937  -0.783  1.00  0.00     0.047 A
ATOM     14  C   UNL     1      -3.135   0.134   0.426  1.00  0.00     0.024 A
ATOM     15  C   UNL     1      -3.200   2.638  -0.876  1.00  0.00     0.004 A
ATOM     16  C   UNL     1      -3.139  -1.105   1.101  1.00  0.00     0.012 A
ATOM     17  C   UNL     1      -4.349   0.854   0.326  1.00  0.00    -0.015 A
ATOM     18  C   UNL     1      -4.366   2.098  -0.330  1.00  0.00     0.009 A
ATOM     19  C   UNL     1      -4.311  -1.623   1.655  1.00  0.00     0.001 A
ATOM     20  C   UNL     1      -5.520   0.318   0.887  1.00  0.00     0.009 A
ATOM     21  C   UNL     1      -5.501  -0.912   1.546  1.00  0.00     0.001 A
ENDBRANCH  11  12
ENDBRANCH  10  11
ENDBRANCH   7  10
ENDBRANCH   1   7
TORSDOF 7
