MODEL 1
REMARK VINA RESULT:    -9.550      0.000      0.000
REMARK INTER + INTRA:         -13.629
REMARK INTER:                 -13.179
REMARK INTRA:                  -0.450
REMARK UNBOUND:                -0.450
REMARK SMILES CC(C)NCC(O)COc1cccc2[nH]c3ccccc3c12
REMARK SMILES IDX 6 1 5 2 4 3 2 5 1 6 3 7 7 8 8 10 9 11 10 12 11 13 22 14
REMARK SMILES IDX 12 15 21 16 14 17 13 18 20 19 16 20 15 21 19 22 17 23 18 24
REMARK H PARENT 4 4 7 9 15 25
ROOT
ATOM      1  C   UNL     1     -32.361   9.015   7.165  1.00  0.00     0.165 C
ENDROOT
BRANCH   1   2
ATOM      2  C   UNL     1     -32.737   7.583   7.592  1.00  0.00     0.116 C
BRANCH   2   3
ATOM      3  N   UNL     1     -34.201   7.443   7.634  1.00  0.00    -0.312 NA
ATOM      4  H   UNL     1     -34.485   7.418   8.616  1.00  0.00     0.123 HD
BRANCH   3   5
ATOM      5  C   UNL     1     -34.688   6.259   6.922  1.00  0.00     0.047 C
ATOM      6  C   UNL     1     -33.947   6.020   5.605  1.00  0.00     0.024 C
ATOM      7  C   UNL     1     -34.500   5.053   7.845  1.00  0.00     0.024 C
ENDBRANCH   3   5
ENDBRANCH   2   3
ENDBRANCH   1   2
BRANCH   1   8
ATOM      8  O   UNL     1     -32.478   9.888   8.304  1.00  0.00    -0.388 OA
ATOM      9  H   UNL     1     -31.573  10.046   8.625  1.00  0.00     0.211 HD
ENDBRANCH   1   8
BRANCH   1  10
ATOM     10  C   UNL     1     -30.919   9.088   6.631  1.00  0.00     0.262 C
BRANCH  10  11
ATOM     11  O   UNL     1     -30.055   9.940   7.386  1.00  0.00    -0.490 OA
BRANCH  11  12
ATOM     12  C   UNL     1     -29.129  10.651   6.663  1.00  0.00     0.129 A
ATOM     13  C   UNL     1     -29.376  11.946   6.180  1.00  0.00     0.047 A
ATOM     14  C   UNL     1     -27.856  10.072   6.439  1.00  0.00     0.049 A
ATOM     15  C   UNL     1     -28.413  12.633   5.441  1.00  0.00     0.006 A
ATOM     16  C   UNL     1     -27.236   8.832   6.817  1.00  0.00     0.011 A
ATOM     17  C   UNL     1     -26.920  10.785   5.689  1.00  0.00     0.050 A
ATOM     18  C   UNL     1     -27.170  12.059   5.170  1.00  0.00     0.027 A
ATOM     19  C   UNL     1     -27.647   7.719   7.580  1.00  0.00     0.011 A
ATOM     20  C   UNL     1     -25.955   8.816   6.269  1.00  0.00     0.047 A
ATOM     21  N   UNL     1     -25.793  10.001   5.593  1.00  0.00    -0.354 N
ATOM     22  C   UNL     1     -26.776   6.639   7.758  1.00  0.00     0.001 A
ATOM     23  C   UNL     1     -25.068   7.746   6.435  1.00  0.00     0.027 A
ATOM     24  C   UNL     1     -25.505   6.654   7.190  1.00  0.00     0.002 A
ATOM     25  H   UNL     1     -24.954  10.266   5.099  1.00  0.00     0.167 HD
ENDBRANCH  11  12
ENDBRANCH  10  11
ENDBRANCH   1  10
TORSDOF 7
ENDMDL
MODEL 2
REMARK VINA RESULT:    -8.871      1.406      1.740
REMARK INTER + INTRA:         -12.692
REMARK INTER:                 -12.277
REMARK INTRA:                  -0.415
REMARK UNBOUND:                -0.450
REMARK SMILES CC(C)NCC(O)COc1cccc2[nH]c3ccccc3c12
REMARK SMILES IDX 6 1 5 2 4 3 2 5 1 6 3 7 7 8 8 10 9 11 10 12 11 13 22 14
REMARK SMILES IDX 12 15 21 16 14 17 13 18 20 19 16 20 15 21 19 22 17 23 18 24
REMARK H PARENT 4 4 7 9 15 25
ROOT
ATOM      1  C   UNL     1     -32.753   7.813   7.250  1.00  0.00     0.165 C
ENDROOT
BRANCH   1   2
ATOM      2  C   UNL     1     -32.292   6.540   7.986  1.00  0.00     0.116 C
BRANCH   2   3
ATOM      3  N   UNL     1     -33.436   5.916   8.670  1.00  0.00    -0.312 NA
ATOM      4  H   UNL     1     -33.736   6.547   9.416  1.00  0.00     0.123 HD
BRANCH   3   5
ATOM      5  C   UNL     1     -33.134   4.586   9.204  1.00  0.00     0.047 C
ATOM      6  C   UNL     1     -31.637   4.269   9.177  1.00  0.00     0.024 C
ATOM      7  C   UNL     1     -33.644   4.538  10.646  1.00  0.00     0.024 C
ENDBRANCH   3   5
ENDBRANCH   2   3
ENDBRANCH   1   2
BRANCH   1   8
ATOM      8  O   UNL     1     -34.115   8.098   7.621  1.00  0.00    -0.388 OA
ATOM      9  H   UNL     1     -34.633   7.303   7.407  1.00  0.00     0.211 HD
ENDBRANCH   1   8
BRANCH   1  10
ATOM     10  C   UNL     1     -31.877   9.026   7.610  1.00  0.00     0.262 C
BRANCH  10  11
ATOM     11  O   UNL     1     -30.475   8.811   7.440  1.00  0.00    -0.490 OA
BRANCH  11  12
ATOM     12  C   UNL     1     -29.769   9.852   6.889  1.00  0.00     0.129 A
ATOM     13  C   UNL     1     -30.363  11.080   6.560  1.00  0.00     0.047 A
ATOM     14  C   UNL     1     -28.375   9.695   6.693  1.00  0.00     0.049 A
ATOM     15  C   UNL     1     -29.614  12.111   5.993  1.00  0.00     0.006 A
ATOM     16  C   UNL     1     -27.436   8.639   6.955  1.00  0.00     0.011 A
ATOM     17  C   UNL     1     -27.658  10.745   6.116  1.00  0.00     0.050 A
ATOM     18  C   UNL     1     -28.248  11.958   5.749  1.00  0.00     0.027 A
ATOM     19  C   UNL     1     -27.535   7.356   7.533  1.00  0.00     0.011 A
ATOM     20  C   UNL     1     -26.186   9.066   6.511  1.00  0.00     0.047 A
ATOM     21  N   UNL     1     -26.350  10.334   6.009  1.00  0.00    -0.354 N
ATOM     22  C   UNL     1     -26.395   6.552   7.638  1.00  0.00     0.001 A
ATOM     23  C   UNL     1     -25.033   8.277   6.607  1.00  0.00     0.027 A
ATOM     24  C   UNL     1     -25.163   7.008   7.178  1.00  0.00     0.002 A
ATOM     25  H   UNL     1     -25.606  10.894   5.621  1.00  0.00     0.167 HD
ENDBRANCH  11  12
ENDBRANCH  10  11
ENDBRANCH   1  10
TORSDOF 7
ENDMDL
MODEL 3
REMARK VINA RESULT:    -8.790      3.110      6.295
REMARK INTER + INTRA:         -12.580
REMARK INTER:                 -12.210
REMARK INTRA:                  -0.370
REMARK UNBOUND:                -0.450
REMARK SMILES CC(C)NCC(O)COc1cccc2[nH]c3ccccc3c12
REMARK SMILES IDX 6 1 5 2 4 3 2 5 1 6 3 7 7 8 8 10 9 11 10 12 11 13 22 14
REMARK SMILES IDX 12 15 21 16 14 17 13 18 20 19 16 20 15 21 19 22 17 23 18 24
REMARK H PARENT 4 4 7 9 15 25
ROOT
ATOM      1  C   UNL     1     -26.204   6.113   8.211  1.00  0.00     0.165 C
ENDROOT
BRANCH   1   2
ATOM      2  C   UNL     1     -26.102   4.700   8.816  1.00  0.00     0.116 C
BRANCH   2   3
ATOM      3  N   UNL     1     -26.541   4.726  10.221  1.00  0.00    -0.312 NA
ATOM      4  H   UNL     1     -26.608   5.704  10.509  1.00  0.00     0.123 HD
BRANCH   3   5
ATOM      5  C   UNL     1     -25.655   3.979  11.116  1.00  0.00     0.047 C
ATOM      6  C   UNL     1     -26.423   3.072  12.080  1.00  0.00     0.024 C
ATOM      7  C   UNL     1     -24.722   3.132  10.247  1.00  0.00     0.024 C
ENDBRANCH   3   5
ENDBRANCH   2   3
ENDBRANCH   1   2
BRANCH   1   8
ATOM      8  O   UNL     1     -25.665   6.090   6.876  1.00  0.00    -0.388 OA
ATOM      9  H   UNL     1     -24.767   6.461   6.933  1.00  0.00     0.211 HD
ENDBRANCH   1   8
BRANCH   1  10
ATOM     10  C   UNL     1     -27.663   6.599   8.146  1.00  0.00     0.262 C
BRANCH  10  11
ATOM     11  O   UNL     1     -27.879   7.694   7.254  1.00  0.00    -0.490 OA
BRANCH  11  12
ATOM     12  C   UNL     1     -29.137   8.245   7.272  1.00  0.00     0.129 A
ATOM     13  C   UNL     1     -30.254   7.568   7.785  1.00  0.00     0.047 A
ATOM     14  C   UNL     1     -29.302   9.570   6.797  1.00  0.00     0.049 A
ATOM     15  C   UNL     1     -31.518   8.158   7.776  1.00  0.00     0.006 A
ATOM     16  C   UNL     1     -28.411  10.566   6.269  1.00  0.00     0.011 A
ATOM     17  C   UNL     1     -30.582  10.126   6.796  1.00  0.00     0.050 A
ATOM     18  C   UNL     1     -31.708   9.445   7.269  1.00  0.00     0.027 A
ATOM     19  C   UNL     1     -27.019  10.620   6.041  1.00  0.00     0.011 A
ATOM     20  C   UNL     1     -29.175  11.685   5.942  1.00  0.00     0.047 A
ATOM     21  N   UNL     1     -30.477  11.390   6.267  1.00  0.00    -0.354 N
ATOM     22  C   UNL     1     -26.450  11.774   5.492  1.00  0.00     0.001 A
ATOM     23  C   UNL     1     -28.625  12.849   5.392  1.00  0.00     0.027 A
ATOM     24  C   UNL     1     -27.244  12.871   5.172  1.00  0.00     0.002 A
ATOM     25  H   UNL     1     -31.252  12.024   6.142  1.00  0.00     0.167 HD
ENDBRANCH  11  12
ENDBRANCH  10  11
ENDBRANCH   1  10
TORSDOF 7
ENDMDL
MODEL 4
REMARK VINA RESULT:    -8.728      1.172      3.602
REMARK INTER + INTRA:         -12.495
REMARK INTER:                 -12.035
REMARK INTRA:                  -0.460
REMARK UNBOUND:                -0.450
REMARK SMILES CC(C)NCC(O)COc1cccc2[nH]c3ccccc3c12
REMARK SMILES IDX 6 1 5 2 4 3 2 5 1 6 3 7 7 8 8 10 9 11 10 12 11 13 22 14
REMARK SMILES IDX 12 15 21 16 14 17 13 18 20 19 16 20 15 21 19 22 17 23 18 24
REMARK H PARENT 4 4 7 9 15 25
ROOT
ATOM      1  C   UNL     1     -31.595   7.349   8.244  1.00  0.00     0.165 C
ENDROOT
BRANCH   1   2
ATOM      2  C   UNL     1     -32.477   7.471   6.986  1.00  0.00     0.116 C
BRANCH   2   3
ATOM      3  N   UNL     1     -33.890   7.275   7.347  1.00  0.00    -0.312 NA
ATOM      4  H   UNL     1     -33.925   6.986   8.327  1.00  0.00     0.123 HD
BRANCH   3   5
ATOM      5  C   UNL     1     -34.574   6.301   6.493  1.00  0.00     0.047 C
ATOM      6  C   UNL     1     -33.772   5.958   5.236  1.00  0.00     0.024 C
ATOM      7  C   UNL     1     -34.800   5.035   7.322  1.00  0.00     0.024 C
ENDBRANCH   3   5
ENDBRANCH   2   3
ENDBRANCH   1   2
BRANCH   1   8
ATOM      8  O   UNL     1     -32.111   6.294   9.075  1.00  0.00    -0.388 OA
ATOM      9  H   UNL     1     -32.436   5.601   8.474  1.00  0.00     0.211 HD
ENDBRANCH   1   8
BRANCH   1  10
ATOM     10  C   UNL     1     -30.134   7.024   7.883  1.00  0.00     0.262 C
BRANCH  10  11
ATOM     11  O   UNL     1     -29.229   8.117   8.052  1.00  0.00    -0.490 OA
BRANCH  11  12
ATOM     12  C   UNL     1     -27.938   7.899   7.639  1.00  0.00     0.129 A
ATOM     13  C   UNL     1     -27.249   6.706   7.903  1.00  0.00     0.047 A
ATOM     14  C   UNL     1     -27.295   8.902   6.872  1.00  0.00     0.049 A
ATOM     15  C   UNL     1     -25.934   6.526   7.474  1.00  0.00     0.006 A
ATOM     16  C   UNL     1     -27.690  10.189   6.368  1.00  0.00     0.011 A
ATOM     17  C   UNL     1     -25.977   8.691   6.466  1.00  0.00     0.050 A
ATOM     18  C   UNL     1     -25.268   7.521   6.757  1.00  0.00     0.027 A
ATOM     19  C   UNL     1     -28.881  10.944   6.422  1.00  0.00     0.011 A
ATOM     20  C   UNL     1     -26.597  10.731   5.693  1.00  0.00     0.047 A
ATOM     21  N   UNL     1     -25.581   9.810   5.771  1.00  0.00    -0.354 N
ATOM     22  C   UNL     1     -28.932  12.203   5.814  1.00  0.00     0.001 A
ATOM     23  C   UNL     1     -26.629  11.989   5.079  1.00  0.00     0.027 A
ATOM     24  C   UNL     1     -27.820  12.716   5.154  1.00  0.00     0.002 A
ATOM     25  H   UNL     1     -24.666   9.935   5.363  1.00  0.00     0.167 HD
ENDBRANCH  11  12
ENDBRANCH  10  11
ENDBRANCH   1  10
TORSDOF 7
ENDMDL
MODEL 5
REMARK VINA RESULT:    -8.612      2.182      5.943
REMARK INTER + INTRA:         -12.334
REMARK INTER:                 -11.540
REMARK INTRA:                  -0.794
REMARK UNBOUND:                -0.450
REMARK SMILES CC(C)NCC(O)COc1cccc2[nH]c3ccccc3c12
REMARK SMILES IDX 6 1 5 2 4 3 2 5 1 6 3 7 7 8 8 10 9 11 10 12 11 13 22 14
REMARK SMILES IDX 12 15 21 16 14 17 13 18 20 19 16 20 15 21 19 22 17 23 18 24
REMARK H PARENT 4 4 7 9 15 25
ROOT
ATOM      1  C   UNL     1     -25.066   8.946   6.144  1.00  0.00     0.165 C
ENDROOT
BRANCH   1   2
ATOM      2  C   UNL     1     -24.559   7.558   6.580  1.00  0.00     0.116 C
BRANCH   2   3
ATOM      3  N   UNL     1     -25.083   7.232   7.917  1.00  0.00    -0.312 NA
ATOM      4  H   UNL     1     -24.336   7.403   8.595  1.00  0.00     0.123 HD
BRANCH   3   5
ATOM      5  C   UNL     1     -25.579   5.858   8.024  1.00  0.00     0.047 C
ATOM      6  C   UNL     1     -24.960   5.102   9.202  1.00  0.00     0.024 C
ATOM      7  C   UNL     1     -27.098   5.925   8.196  1.00  0.00     0.024 C
ENDBRANCH   3   5
ENDBRANCH   2   3
ENDBRANCH   1   2
BRANCH   1   8
ATOM      8  O   UNL     1     -25.811   8.807   4.921  1.00  0.00    -0.388 OA
ATOM      9  H   UNL     1     -25.950   9.708   4.578  1.00  0.00     0.211 HD
ENDBRANCH   1   8
BRANCH   1  10
ATOM     10  C   UNL     1     -25.978   9.578   7.210  1.00  0.00     0.262 C
BRANCH  10  11
ATOM     11  O   UNL     1     -27.353   9.204   7.105  1.00  0.00    -0.490 OA
BRANCH  11  12
ATOM     12  C   UNL     1     -28.213  10.187   6.682  1.00  0.00     0.129 A
ATOM     13  C   UNL     1     -27.768  11.399   6.133  1.00  0.00     0.047 A
ATOM     14  C   UNL     1     -29.607   9.944   6.757  1.00  0.00     0.049 A
ATOM     15  C   UNL     1     -28.674  12.377   5.723  1.00  0.00     0.006 A
ATOM     16  C   UNL     1     -30.411   8.834   7.191  1.00  0.00     0.011 A
ATOM     17  C   UNL     1     -30.484  10.948   6.345  1.00  0.00     0.050 A
ATOM     18  C   UNL     1     -30.051  12.175   5.834  1.00  0.00     0.027 A
ATOM     19  C   UNL     1     -30.124   7.545   7.687  1.00  0.00     0.011 A
ATOM     20  C   UNL     1     -31.748   9.203   7.052  1.00  0.00     0.047 A
ATOM     21  N   UNL     1     -31.762  10.479   6.545  1.00  0.00    -0.354 N
ATOM     22  C   UNL     1     -31.172   6.684   8.032  1.00  0.00     0.001 A
ATOM     23  C   UNL     1     -32.811   8.357   7.391  1.00  0.00     0.027 A
ATOM     24  C   UNL     1     -32.496   7.088   7.886  1.00  0.00     0.002 A
ATOM     25  H   UNL     1     -32.600  11.001   6.337  1.00  0.00     0.167 HD
ENDBRANCH  11  12
ENDBRANCH  10  11
ENDBRANCH   1  10
TORSDOF 7
ENDMDL
MODEL 6
REMARK VINA RESULT:    -8.193      3.274      9.197
REMARK INTER + INTRA:         -11.756
REMARK INTER:                 -11.366
REMARK INTRA:                  -0.390
REMARK UNBOUND:                -0.450
REMARK SMILES CC(C)NCC(O)COc1cccc2[nH]c3ccccc3c12
REMARK SMILES IDX 6 1 5 2 4 3 2 5 1 6 3 7 7 8 8 10 9 11 10 12 11 13 22 14
REMARK SMILES IDX 12 15 21 16 14 17 13 18 20 19 16 20 15 21 19 22 17 23 18 24
REMARK H PARENT 4 4 7 9 15 25
ROOT
ATOM      1  C   UNL     1     -32.430   8.410   7.472  1.00  0.00     0.165 C
ENDROOT
BRANCH   1   2
ATOM      2  C   UNL     1     -31.490   8.940   6.372  1.00  0.00     0.116 C
BRANCH   2   3
ATOM      3  N   UNL     1     -31.429  10.409   6.434  1.00  0.00    -0.312 NA
ATOM      4  H   UNL     1     -31.523  10.766   5.480  1.00  0.00     0.123 HD
BRANCH   3   5
ATOM      5  C   UNL     1     -30.201  10.910   7.057  1.00  0.00     0.047 C
ATOM      6  C   UNL     1     -29.198  11.443   6.032  1.00  0.00     0.024 C
ATOM      7  C   UNL     1     -30.595  12.030   8.023  1.00  0.00     0.024 C
ENDBRANCH   3   5
ENDBRANCH   2   3
ENDBRANCH   1   2
BRANCH   1   8
ATOM      8  O   UNL     1     -33.394   9.430   7.795  1.00  0.00    -0.388 OA
ATOM      9  H   UNL     1     -32.956  10.038   8.416  1.00  0.00     0.211 HD
ENDBRANCH   1   8
BRANCH   1  10
ATOM     10  C   UNL     1     -33.182   7.147   7.016  1.00  0.00     0.262 C
BRANCH  10  11
ATOM     11  O   UNL     1     -34.175   6.689   7.935  1.00  0.00    -0.490 OA
BRANCH  11  12
ATOM     12  C   UNL     1     -33.863   5.555   8.645  1.00  0.00     0.129 A
ATOM     13  C   UNL     1     -32.556   5.052   8.733  1.00  0.00     0.047 A
ATOM     14  C   UNL     1     -34.896   4.897   9.356  1.00  0.00     0.049 A
ATOM     15  C   UNL     1     -32.281   3.891   9.455  1.00  0.00     0.006 A
ATOM     16  C   UNL     1     -36.300   5.142   9.545  1.00  0.00     0.011 A
ATOM     17  C   UNL     1     -34.586   3.734  10.062  1.00  0.00     0.050 A
ATOM     18  C   UNL     1     -33.294   3.203  10.124  1.00  0.00     0.027 A
ATOM     19  C   UNL     1     -37.190   6.150   9.116  1.00  0.00     0.011 A
ATOM     20  C   UNL     1     -36.805   4.113  10.339  1.00  0.00     0.047 A
ATOM     21  N   UNL     1     -35.753   3.280  10.631  1.00  0.00    -0.354 N
ATOM     22  C   UNL     1     -38.538   6.088   9.484  1.00  0.00     0.001 A
ATOM     23  C   UNL     1     -38.150   4.033  10.718  1.00  0.00     0.027 A
ATOM     24  C   UNL     1     -39.009   5.042  10.272  1.00  0.00     0.002 A
ATOM     25  H   UNL     1     -35.825   2.448  11.199  1.00  0.00     0.167 HD
ENDBRANCH  11  12
ENDBRANCH  10  11
ENDBRANCH   1  10
TORSDOF 7
ENDMDL
MODEL 7
REMARK VINA RESULT:    -8.003      1.907      4.274
REMARK INTER + INTRA:         -11.494
REMARK INTER:                 -11.050
REMARK INTRA:                  -0.443
REMARK UNBOUND:                -0.450
REMARK SMILES CC(C)NCC(O)COc1cccc2[nH]c3ccccc3c12
REMARK SMILES IDX 6 1 5 2 4 3 2 5 1 6 3 7 7 8 8 10 9 11 10 12 11 13 22 14
REMARK SMILES IDX 12 15 21 16 14 17 13 18 20 19 16 20 15 21 19 22 17 23 18 24
REMARK H PARENT 4 4 7 9 15 25
ROOT
ATOM      1  C   UNL     1     -33.727   7.093   7.016  1.00  0.00     0.165 C
ENDROOT
BRANCH   1   2
ATOM      2  C   UNL     1     -34.620   5.996   7.628  1.00  0.00     0.116 C
BRANCH   2   3
ATOM      3  N   UNL     1     -35.503   6.582   8.649  1.00  0.00    -0.312 NA
ATOM      4  H   UNL     1     -34.926   7.153   9.270  1.00  0.00     0.123 HD
BRANCH   3   5
ATOM      5  C   UNL     1     -36.251   5.579   9.410  1.00  0.00     0.047 C
ATOM      6  C   UNL     1     -35.876   5.569  10.893  1.00  0.00     0.024 C
ATOM      7  C   UNL     1     -37.740   5.895   9.257  1.00  0.00     0.024 C
ENDBRANCH   3   5
ENDBRANCH   2   3
ENDBRANCH   1   2
BRANCH   1   8
ATOM      8  O   UNL     1     -33.933   8.320   7.741  1.00  0.00    -0.388 OA
ATOM      9  H   UNL     1     -34.870   8.556   7.625  1.00  0.00     0.211 HD
ENDBRANCH   1   8
BRANCH   1  10
ATOM     10  C   UNL     1     -32.237   6.719   7.090  1.00  0.00     0.262 C
BRANCH  10  11
ATOM     11  O   UNL     1     -31.493   7.453   8.064  1.00  0.00    -0.490 OA
BRANCH  11  12
ATOM     12  C   UNL     1     -30.129   7.301   8.022  1.00  0.00     0.129 A
ATOM     13  C   UNL     1     -29.485   6.122   8.429  1.00  0.00     0.047 A
ATOM     14  C   UNL     1     -29.347   8.359   7.498  1.00  0.00     0.049 A
ATOM     15  C   UNL     1     -28.096   6.010   8.379  1.00  0.00     0.006 A
ATOM     16  C   UNL     1     -29.646   9.652   6.946  1.00  0.00     0.011 A
ATOM     17  C   UNL     1     -27.959   8.214   7.470  1.00  0.00     0.050 A
ATOM     18  C   UNL     1     -27.305   7.059   7.910  1.00  0.00     0.027 A
ATOM     19  C   UNL     1     -30.839  10.360   6.689  1.00  0.00     0.011 A
ATOM     20  C   UNL     1     -28.435  10.263   6.622  1.00  0.00     0.047 A
ATOM     21  N   UNL     1     -27.438   9.377   6.951  1.00  0.00    -0.354 N
ATOM     22  C   UNL     1     -30.779  11.642   6.132  1.00  0.00     0.001 A
ATOM     23  C   UNL     1     -28.354  11.544   6.064  1.00  0.00     0.027 A
ATOM     24  C   UNL     1     -29.552  12.224   5.827  1.00  0.00     0.002 A
ATOM     25  H   UNL     1     -26.453   9.553   6.819  1.00  0.00     0.167 HD
ENDBRANCH  11  12
ENDBRANCH  10  11
ENDBRANCH   1  10
TORSDOF 7
ENDMDL
MODEL 8
REMARK VINA RESULT:    -7.797      2.723      6.522
REMARK INTER + INTRA:         -11.210
REMARK INTER:                 -10.426
REMARK INTRA:                  -0.785
REMARK UNBOUND:                -0.450
REMARK SMILES CC(C)NCC(O)COc1cccc2[nH]c3ccccc3c12
REMARK SMILES IDX 6 1 5 2 4 3 2 5 1 6 3 7 7 8 8 10 9 11 10 12 11 13 22 14
REMARK SMILES IDX 12 15 21 16 14 17 13 18 20 19 16 20 15 21 19 22 17 23 18 24
REMARK H PARENT 4 4 7 9 15 25
ROOT
ATOM      1  C   UNL     1     -27.234   9.029   5.493  1.00  0.00     0.165 C
ENDROOT
BRANCH   1   2
ATOM      2  C   UNL     1     -27.340  10.290   6.374  1.00  0.00     0.116 C
BRANCH   2   3
ATOM      3  N   UNL     1     -28.610  10.275   7.117  1.00  0.00    -0.312 NA
ATOM      4  H   UNL     1     -28.939   9.307   7.154  1.00  0.00     0.123 HD
BRANCH   3   5
ATOM      5  C   UNL     1     -29.631  11.149   6.534  1.00  0.00     0.047 C
ATOM      6  C   UNL     1     -30.535  11.782   7.593  1.00  0.00     0.024 C
ATOM      7  C   UNL     1     -28.909  12.247   5.749  1.00  0.00     0.024 C
ENDBRANCH   3   5
ENDBRANCH   2   3
ENDBRANCH   1   2
BRANCH   1   8
ATOM      8  O   UNL     1     -26.597   9.380   4.251  1.00  0.00    -0.388 OA
ATOM      9  H   UNL     1     -26.274   8.548   3.862  1.00  0.00     0.211 HD
ENDBRANCH   1   8
BRANCH   1  10
ATOM     10  C   UNL     1     -26.409   7.926   6.179  1.00  0.00     0.262 C
BRANCH  10  11
ATOM     11  O   UNL     1     -26.671   7.777   7.576  1.00  0.00    -0.490 OA
BRANCH  11  12
ATOM     12  C   UNL     1     -26.599   6.498   8.069  1.00  0.00     0.129 A
ATOM     13  C   UNL     1     -25.380   5.843   8.303  1.00  0.00     0.047 A
ATOM     14  C   UNL     1     -27.804   5.832   8.401  1.00  0.00     0.049 A
ATOM     15  C   UNL     1     -25.348   4.539   8.797  1.00  0.00     0.006 A
ATOM     16  C   UNL     1     -29.195   6.192   8.357  1.00  0.00     0.011 A
ATOM     17  C   UNL     1     -27.735   4.525   8.885  1.00  0.00     0.050 A
ATOM     18  C   UNL     1     -26.527   3.850   9.085  1.00  0.00     0.027 A
ATOM     19  C   UNL     1     -29.899   7.358   7.990  1.00  0.00     0.011 A
ATOM     20  C   UNL     1     -29.930   5.090   8.792  1.00  0.00     0.047 A
ATOM     21  N   UNL     1     -29.026   4.102   9.099  1.00  0.00    -0.354 N
ATOM     22  C   UNL     1     -31.296   7.377   8.060  1.00  0.00     0.001 A
ATOM     23  C   UNL     1     -31.328   5.088   8.870  1.00  0.00     0.027 A
ATOM     24  C   UNL     1     -31.998   6.255   8.493  1.00  0.00     0.002 A
ATOM     25  H   UNL     1     -29.277   3.188   9.447  1.00  0.00     0.167 HD
ENDBRANCH  11  12
ENDBRANCH  10  11
ENDBRANCH   1  10
TORSDOF 7
ENDMDL
MODEL 9
REMARK VINA RESULT:    -7.717      2.597      8.752
REMARK INTER + INTRA:         -11.100
REMARK INTER:                 -10.732
REMARK INTRA:                  -0.368
REMARK UNBOUND:                -0.450
REMARK SMILES CC(C)NCC(O)COc1cccc2[nH]c3ccccc3c12
REMARK SMILES IDX 6 1 5 2 4 3 2 5 1 6 3 7 7 8 8 10 9 11 10 12 11 13 22 14
REMARK SMILES IDX 12 15 21 16 14 17 13 18 20 19 16 20 15 21 19 22 17 23 18 24
REMARK H PARENT 4 4 7 9 15 25
ROOT
ATOM      1  C   UNL     1     -32.449   8.911   7.690  1.00  0.00     0.165 C
ENDROOT
BRANCH   1   2
ATOM      2  C   UNL     1     -31.704   9.761   6.642  1.00  0.00     0.116 C
BRANCH   2   3
ATOM      3  N   UNL     1     -30.284   9.378   6.606  1.00  0.00    -0.312 NA
ATOM      4  H   UNL     1     -30.131   8.677   7.334  1.00  0.00     0.123 HD
BRANCH   3   5
ATOM      5  C   UNL     1     -29.374  10.513   6.777  1.00  0.00     0.047 C
ATOM      6  C   UNL     1     -29.991  11.637   7.612  1.00  0.00     0.024 C
ATOM      7  C   UNL     1     -28.110   9.995   7.465  1.00  0.00     0.024 C
ENDBRANCH   3   5
ENDBRANCH   2   3
ENDBRANCH   1   2
BRANCH   1   8
ATOM      8  O   UNL     1     -33.737   9.503   7.940  1.00  0.00    -0.388 OA
ATOM      9  H   UNL     1     -33.591  10.461   8.023  1.00  0.00     0.211 HD
ENDBRANCH   1   8
BRANCH   1  10
ATOM     10  C   UNL     1     -32.654   7.465   7.206  1.00  0.00     0.262 C
BRANCH  10  11
ATOM     11  O   UNL     1     -33.991   6.982   7.344  1.00  0.00    -0.490 OA
BRANCH  11  12
ATOM     12  C   UNL     1     -34.257   5.768   6.760  1.00  0.00     0.129 A
ATOM     13  C   UNL     1     -33.748   5.404   5.503  1.00  0.00     0.047 A
ATOM     14  C   UNL     1     -35.035   4.828   7.478  1.00  0.00     0.049 A
ATOM     15  C   UNL     1     -34.048   4.164   4.939  1.00  0.00     0.006 A
ATOM     16  C   UNL     1     -35.659   4.820   8.773  1.00  0.00     0.011 A
ATOM     17  C   UNL     1     -35.322   3.600   6.879  1.00  0.00     0.050 A
ATOM     18  C   UNL     1     -34.851   3.243   5.612  1.00  0.00     0.027 A
ATOM     19  C   UNL     1     -35.717   5.738   9.843  1.00  0.00     0.011 A
ATOM     20  C   UNL     1     -36.323   3.602   8.914  1.00  0.00     0.047 A
ATOM     21  N   UNL     1     -36.105   2.891   7.759  1.00  0.00    -0.354 N
ATOM     22  C   UNL     1     -36.437   5.414  10.998  1.00  0.00     0.001 A
ATOM     23  C   UNL     1     -37.048   3.259  10.061  1.00  0.00     0.027 A
ATOM     24  C   UNL     1     -37.093   4.191  11.102  1.00  0.00     0.002 A
ATOM     25  H   UNL     1     -36.466   1.965   7.584  1.00  0.00     0.167 HD
ENDBRANCH  11  12
ENDBRANCH  10  11
ENDBRANCH   1  10
TORSDOF 7
ENDMDL
