MODEL 1
REMARK VINA RESULT:    -7.363      0.000      0.000
REMARK INTER + INTRA:         -11.237
REMARK INTER:                 -10.592
REMARK INTRA:                  -0.645
REMARK UNBOUND:                -0.645
REMARK SMILES CC(C)(C)NCC(O)COc1nsnc1N1CCOCC1
REMARK SMILES IDX 7 1 6 2 5 3 2 5 1 6 3 7 4 8 8 9 9 11 10 12 11 13 12 14 15 15
REMARK SMILES IDX 13 16 14 17 16 18 17 19 21 20 18 21 20 22 19 23
REMARK H PARENT 5 4 8 10
ROOT
ATOM      1  C   UNL     1     -26.794   6.208   7.859  1.00  0.00     0.166 C
ENDROOT
BRANCH   1   2
ATOM      2  C   UNL     1     -25.762   5.342   8.615  1.00  0.00     0.116 C
BRANCH   2   3
ATOM      3  N   UNL     1     -26.201   4.953   9.957  1.00  0.00    -0.309 NA
ATOM      4  H   UNL     1     -27.216   5.031  10.023  1.00  0.00     0.123 HD
BRANCH   3   5
ATOM      5  C   UNL     1     -25.804   3.602  10.402  1.00  0.00     0.010 C
ATOM      6  C   UNL     1     -24.282   3.494  10.596  1.00  0.00     0.027 C
ATOM      7  C   UNL     1     -26.291   2.508   9.438  1.00  0.00     0.027 C
ATOM      8  C   UNL     1     -26.479   3.384  11.771  1.00  0.00     0.027 C
ENDBRANCH   3   5
ENDBRANCH   2   3
ENDBRANCH   1   2
BRANCH   1   9
ATOM      9  O   UNL     1     -27.710   6.764   8.822  1.00  0.00    -0.388 OA
ATOM     10  H   UNL     1     -27.241   6.846   9.670  1.00  0.00     0.211 HD
ENDBRANCH   1   9
BRANCH   1  11
ATOM     11  C   UNL     1     -26.147   7.336   7.040  1.00  0.00     0.264 C
BRANCH  11  12
ATOM     12  O   UNL     1     -26.534   8.587   7.619  1.00  0.00    -0.472 OA
BRANCH  12  13
ATOM     13  C   UNL     1     -26.614   9.630   6.750  1.00  0.00     0.270 A
ATOM     14  N   UNL     1     -25.489  10.129   6.229  1.00  0.00    -0.133 NA
ATOM     15  C   UNL     1     -27.865  10.253   6.313  1.00  0.00     0.207 A
ATOM     16  S   UNL     1     -26.012  11.339   5.205  1.00  0.00     0.074 S
ATOM     17  N   UNL     1     -27.657  11.234   5.422  1.00  0.00    -0.151 NA
BRANCH  15  18
ATOM     18  N   UNL     1     -29.120   9.892   6.735  1.00  0.00    -0.347 N
ATOM     19  C   UNL     1     -29.945  10.827   7.511  1.00  0.00     0.147 C
ATOM     20  C   UNL     1     -29.724   8.585   6.454  1.00  0.00     0.147 C
ATOM     21  C   UNL     1     -31.432  10.585   7.204  1.00  0.00     0.181 C
ATOM     22  C   UNL     1     -30.839   8.277   7.470  1.00  0.00     0.181 C
ATOM     23  O   UNL     1     -31.885   9.256   7.504  1.00  0.00    -0.378 OA
ENDBRANCH  15  18
ENDBRANCH  12  13
ENDBRANCH  11  12
ENDBRANCH   1  11
TORSDOF 8
ENDMDL
MODEL 2
REMARK VINA RESULT:    -7.246      6.789      9.378
REMARK INTER + INTRA:         -11.068
REMARK INTER:                 -10.400
REMARK INTRA:                  -0.668
REMARK UNBOUND:                -0.645
REMARK SMILES CC(C)(C)NCC(O)COc1nsnc1N1CCOCC1
REMARK SMILES IDX 7 1 6 2 5 3 2 5 1 6 3 7 4 8 8 9 9 11 10 12 11 13 12 14 15 15
REMARK SMILES IDX 13 16 14 17 16 18 17 19 21 20 18 21 20 22 19 23
REMARK H PARENT 5 4 8 10
ROOT
ATOM      1  C   UNL     1     -34.010   5.873   7.921  1.00  0.00     0.166 C
ENDROOT
BRANCH   1   2
ATOM      2  C   UNL     1     -32.505   6.210   8.002  1.00  0.00     0.116 C
BRANCH   2   3
ATOM      3  N   UNL     1     -32.237   7.640   8.177  1.00  0.00    -0.309 NA
ATOM      4  H   UNL     1     -31.830   7.804   9.098  1.00  0.00     0.123 HD
BRANCH   3   5
ATOM      5  C   UNL     1     -31.367   8.265   7.160  1.00  0.00     0.010 C
ATOM      6  C   UNL     1     -31.719   7.786   5.742  1.00  0.00     0.027 C
ATOM      7  C   UNL     1     -29.877   8.022   7.445  1.00  0.00     0.027 C
ATOM      8  C   UNL     1     -31.638   9.781   7.236  1.00  0.00     0.027 C
ENDBRANCH   3   5
ENDBRANCH   2   3
ENDBRANCH   1   2
BRANCH   1   9
ATOM      9  O   UNL     1     -34.739   7.102   7.729  1.00  0.00    -0.388 OA
ATOM     10  H   UNL     1     -34.153   7.730   7.273  1.00  0.00     0.211 HD
ENDBRANCH   1   9
BRANCH   1  11
ATOM     11  C   UNL     1     -34.345   4.885   6.793  1.00  0.00     0.264 C
BRANCH  11  12
ATOM     12  O   UNL     1     -35.371   4.004   7.261  1.00  0.00    -0.472 OA
BRANCH  12  13
ATOM     13  C   UNL     1     -35.070   3.306   8.389  1.00  0.00     0.270 A
ATOM     14  N   UNL     1     -34.135   2.353   8.331  1.00  0.00    -0.133 NA
ATOM     15  C   UNL     1     -35.687   3.532   9.696  1.00  0.00     0.207 A
ATOM     16  S   UNL     1     -34.036   1.779   9.894  1.00  0.00     0.074 S
ATOM     17  N   UNL     1     -35.176   2.731  10.642  1.00  0.00    -0.151 NA
BRANCH  15  18
ATOM     18  N   UNL     1     -36.668   4.455   9.960  1.00  0.00    -0.347 N
ATOM     19  C   UNL     1     -36.473   5.475  10.999  1.00  0.00     0.147 C
ATOM     20  C   UNL     1     -37.950   4.502   9.249  1.00  0.00     0.147 C
ATOM     21  C   UNL     1     -37.227   6.758  10.616  1.00  0.00     0.181 C
ATOM     22  C   UNL     1     -39.007   5.240  10.090  1.00  0.00     0.181 C
ATOM     23  O   UNL     1     -38.641   6.579  10.445  1.00  0.00    -0.378 OA
ENDBRANCH  15  18
ENDBRANCH  12  13
ENDBRANCH  11  12
ENDBRANCH   1  11
TORSDOF 8
ENDMDL
MODEL 3
REMARK VINA RESULT:    -6.904      6.607      9.318
REMARK INTER + INTRA:         -10.576
REMARK INTER:                  -9.968
REMARK INTRA:                  -0.608
REMARK UNBOUND:                -0.645
REMARK SMILES CC(C)(C)NCC(O)COc1nsnc1N1CCOCC1
REMARK SMILES IDX 7 1 6 2 5 3 2 5 1 6 3 7 4 8 8 9 9 11 10 12 11 13 12 14 15 15
REMARK SMILES IDX 13 16 14 17 16 18 17 19 21 20 18 21 20 22 19 23
REMARK H PARENT 5 4 8 10
ROOT
ATOM      1  C   UNL     1     -34.073   5.822   7.774  1.00  0.00     0.166 C
ENDROOT
BRANCH   1   2
ATOM      2  C   UNL     1     -32.597   6.270   7.697  1.00  0.00     0.116 C
BRANCH   2   3
ATOM      3  N   UNL     1     -32.388   7.659   8.113  1.00  0.00    -0.309 NA
ATOM      4  H   UNL     1     -32.006   7.681   9.059  1.00  0.00     0.123 HD
BRANCH   3   5
ATOM      5  C   UNL     1     -31.523   8.474   7.237  1.00  0.00     0.010 C
ATOM      6  C   UNL     1     -30.048   8.055   7.348  1.00  0.00     0.027 C
ATOM      7  C   UNL     1     -31.666   9.979   7.519  1.00  0.00     0.027 C
ATOM      8  C   UNL     1     -31.992   8.201   5.794  1.00  0.00     0.027 C
ENDBRANCH   3   5
ENDBRANCH   2   3
ENDBRANCH   1   2
BRANCH   1   9
ATOM      9  O   UNL     1     -34.906   6.949   7.441  1.00  0.00    -0.388 OA
ATOM     10  H   UNL     1     -34.745   7.646   8.100  1.00  0.00     0.211 HD
ENDBRANCH   1   9
BRANCH   1  11
ATOM     11  C   UNL     1     -34.392   4.641   6.844  1.00  0.00     0.264 C
BRANCH  11  12
ATOM     12  O   UNL     1     -35.114   3.661   7.598  1.00  0.00    -0.472 OA
BRANCH  12  13
ATOM     13  C   UNL     1     -34.510   3.247   8.743  1.00  0.00     0.270 A
ATOM     14  N   UNL     1     -33.415   2.484   8.661  1.00  0.00    -0.133 NA
ATOM     15  C   UNL     1     -34.960   3.593  10.092  1.00  0.00     0.207 A
ATOM     16  S   UNL     1     -32.969   2.234  10.249  1.00  0.00     0.074 S
ATOM     17  N   UNL     1     -34.159   3.086  11.039  1.00  0.00    -0.151 NA
BRANCH  15  18
ATOM     18  N   UNL     1     -36.061   4.357  10.388  1.00  0.00    -0.347 N
ATOM     19  C   UNL     1     -37.409   3.899  10.024  1.00  0.00     0.147 C
ATOM     20  C   UNL     1     -35.989   5.653  11.072  1.00  0.00     0.147 C
ATOM     21  C   UNL     1     -38.429   4.418  11.049  1.00  0.00     0.181 C
ATOM     22  C   UNL     1     -37.250   6.487  10.780  1.00  0.00     0.181 C
ATOM     23  O   UNL     1     -38.475   5.848  11.160  1.00  0.00    -0.378 OA
ENDBRANCH  15  18
ENDBRANCH  12  13
ENDBRANCH  11  12
ENDBRANCH   1  11
TORSDOF 8
ENDMDL
MODEL 4
REMARK VINA RESULT:    -6.772      3.843      6.673
REMARK INTER + INTRA:         -10.386
REMARK INTER:                  -9.750
REMARK INTRA:                  -0.636
REMARK UNBOUND:                -0.645
REMARK SMILES CC(C)(C)NCC(O)COc1nsnc1N1CCOCC1
REMARK SMILES IDX 7 1 6 2 5 3 2 5 1 6 3 7 4 8 8 9 9 11 10 12 11 13 12 14 15 15
REMARK SMILES IDX 13 16 14 17 16 18 17 19 21 20 18 21 20 22 19 23
REMARK H PARENT 5 4 8 10
ROOT
ATOM      1  C   UNL     1     -33.291   7.033   7.283  1.00  0.00     0.166 C
ENDROOT
BRANCH   1   2
ATOM      2  C   UNL     1     -33.992   5.796   7.887  1.00  0.00     0.116 C
BRANCH   2   3
ATOM      3  N   UNL     1     -35.038   6.135   8.855  1.00  0.00    -0.309 NA
ATOM      4  H   UNL     1     -35.812   6.596   8.376  1.00  0.00     0.123 HD
BRANCH   3   5
ATOM      5  C   UNL     1     -35.577   5.010   9.646  1.00  0.00     0.010 C
ATOM      6  C   UNL     1     -37.115   5.014   9.662  1.00  0.00     0.027 C
ATOM      7  C   UNL     1     -35.035   5.001  11.084  1.00  0.00     0.027 C
ATOM      8  C   UNL     1     -35.108   3.722   8.939  1.00  0.00     0.027 C
ENDBRANCH   3   5
ENDBRANCH   2   3
ENDBRANCH   1   2
BRANCH   1   9
ATOM      9  O   UNL     1     -34.075   8.198   7.603  1.00  0.00    -0.388 OA
ATOM     10  H   UNL     1     -35.014   7.959   7.524  1.00  0.00     0.211 HD
ENDBRANCH   1   9
BRANCH   1  11
ATOM     11  C   UNL     1     -31.851   7.215   7.789  1.00  0.00     0.264 C
BRANCH  11  12
ATOM     12  O   UNL     1     -31.040   7.629   6.685  1.00  0.00    -0.472 OA
BRANCH  12  13
ATOM     13  C   UNL     1     -30.622   8.923   6.723  1.00  0.00     0.270 A
ATOM     14  N   UNL     1     -31.520   9.900   6.563  1.00  0.00    -0.133 NA
ATOM     15  C   UNL     1     -29.238   9.343   6.949  1.00  0.00     0.207 A
ATOM     16  S   UNL     1     -30.632  11.303   6.714  1.00  0.00     0.074 S
ATOM     17  N   UNL     1     -29.113  10.678   6.978  1.00  0.00    -0.151 NA
BRANCH  15  18
ATOM     18  N   UNL     1     -28.173   8.497   7.128  1.00  0.00    -0.347 N
ATOM     19  C   UNL     1     -27.063   8.479   6.166  1.00  0.00     0.147 C
ATOM     20  C   UNL     1     -28.054   7.571   8.260  1.00  0.00     0.147 C
ATOM     21  C   UNL     1     -25.754   8.126   6.889  1.00  0.00     0.181 C
ATOM     22  C   UNL     1     -27.090   6.422   7.917  1.00  0.00     0.181 C
ATOM     23  O   UNL     1     -25.773   6.852   7.551  1.00  0.00    -0.378 OA
ENDBRANCH  15  18
ENDBRANCH  12  13
ENDBRANCH  11  12
ENDBRANCH   1  11
TORSDOF 8
ENDMDL
MODEL 5
REMARK VINA RESULT:    -6.623      5.308      8.009
REMARK INTER + INTRA:         -10.172
REMARK INTER:                  -9.045
REMARK INTRA:                  -1.127
REMARK UNBOUND:                -0.645
REMARK SMILES CC(C)(C)NCC(O)COc1nsnc1N1CCOCC1
REMARK SMILES IDX 7 1 6 2 5 3 2 5 1 6 3 7 4 8 8 9 9 11 10 12 11 13 12 14 15 15
REMARK SMILES IDX 13 16 14 17 16 18 17 19 21 20 18 21 20 22 19 23
REMARK H PARENT 5 4 8 10
ROOT
ATOM      1  C   UNL     1     -28.278   1.036  13.348  1.00  0.00     0.166 C
ENDROOT
BRANCH   1   2
ATOM      2  C   UNL     1     -29.261   0.186  12.514  1.00  0.00     0.116 C
BRANCH   2   3
ATOM      3  N   UNL     1     -30.457   0.922  12.096  1.00  0.00    -0.309 NA
ATOM      4  H   UNL     1     -30.254   1.921  12.069  1.00  0.00     0.123 HD
BRANCH   3   5
ATOM      5  C   UNL     1     -31.042   0.525  10.799  1.00  0.00     0.010 C
ATOM      6  C   UNL     1     -30.127  -0.451  10.040  1.00  0.00     0.027 C
ATOM      7  C   UNL     1     -31.366   1.739   9.914  1.00  0.00     0.027 C
ATOM      8  C   UNL     1     -32.359  -0.207  11.126  1.00  0.00     0.027 C
ENDBRANCH   3   5
ENDBRANCH   2   3
ENDBRANCH   1   2
BRANCH   1   9
ATOM      9  O   UNL     1     -27.254   0.166  13.866  1.00  0.00    -0.388 OA
ATOM     10  H   UNL     1     -27.588  -0.236  14.686  1.00  0.00     0.211 HD
ENDBRANCH   1   9
BRANCH   1  11
ATOM     11  C   UNL     1     -27.637   2.178  12.543  1.00  0.00     0.264 C
BRANCH  11  12
ATOM     12  O   UNL     1     -27.561   1.769  11.174  1.00  0.00    -0.472 OA
BRANCH  12  13
ATOM     13  C   UNL     1     -26.316   1.442  10.733  1.00  0.00     0.270 A
ATOM     14  N   UNL     1     -25.800   0.256  11.068  1.00  0.00    -0.133 NA
ATOM     15  C   UNL     1     -25.484   2.297   9.884  1.00  0.00     0.207 A
ATOM     16  S   UNL     1     -24.313   0.227  10.312  1.00  0.00     0.074 S
ATOM     17  N   UNL     1     -24.321   1.713   9.564  1.00  0.00    -0.151 NA
BRANCH  15  18
ATOM     18  N   UNL     1     -25.830   3.548   9.439  1.00  0.00    -0.347 N
ATOM     19  C   UNL     1     -25.014   4.718   9.791  1.00  0.00     0.147 C
ATOM     20  C   UNL     1     -27.004   3.815   8.600  1.00  0.00     0.147 C
ATOM     21  C   UNL     1     -25.077   5.755   8.658  1.00  0.00     0.181 C
ATOM     22  C   UNL     1     -27.428   5.289   8.720  1.00  0.00     0.181 C
ATOM     23  O   UNL     1     -26.402   6.224   8.364  1.00  0.00    -0.378 OA
ENDBRANCH  15  18
ENDBRANCH  12  13
ENDBRANCH  11  12
ENDBRANCH   1  11
TORSDOF 8
ENDMDL
MODEL 6
REMARK VINA RESULT:    -6.570      3.846      8.176
REMARK INTER + INTRA:         -10.095
REMARK INTER:                  -9.342
REMARK INTRA:                  -0.753
REMARK UNBOUND:                -0.645
REMARK SMILES CC(C)(C)NCC(O)COc1nsnc1N1CCOCC1
REMARK SMILES IDX 7 1 6 2 5 3 2 5 1 6 3 7 4 8 8 9 9 11 10 12 11 13 12 14 15 15
REMARK SMILES IDX 13 16 14 17 16 18 17 19 21 20 18 21 20 22 19 23
REMARK H PARENT 5 4 8 10
ROOT
ATOM      1  C   UNL     1     -26.295   5.521   7.982  1.00  0.00     0.166 C
ENDROOT
BRANCH   1   2
ATOM      2  C   UNL     1     -27.132   6.794   7.725  1.00  0.00     0.116 C
BRANCH   2   3
ATOM      3  N   UNL     1     -26.322   8.009   7.608  1.00  0.00    -0.309 NA
ATOM      4  H   UNL     1     -25.368   7.762   7.346  1.00  0.00     0.123 HD
BRANCH   3   5
ATOM      5  C   UNL     1     -26.820   9.030   6.664  1.00  0.00     0.010 C
ATOM      6  C   UNL     1     -28.004   9.816   7.251  1.00  0.00     0.027 C
ATOM      7  C   UNL     1     -27.211   8.423   5.307  1.00  0.00     0.027 C
ATOM      8  C   UNL     1     -25.654  10.015   6.441  1.00  0.00     0.027 C
ENDBRANCH   3   5
ENDBRANCH   2   3
ENDBRANCH   1   2
BRANCH   1   9
ATOM      9  O   UNL     1     -24.984   5.924   8.424  1.00  0.00    -0.388 OA
ATOM     10  H   UNL     1     -25.078   6.750   8.928  1.00  0.00     0.211 HD
ENDBRANCH   1   9
BRANCH   1  11
ATOM     11  C   UNL     1     -26.931   4.582   9.018  1.00  0.00     0.264 C
BRANCH  11  12
ATOM     12  O   UNL     1     -26.481   3.250   8.749  1.00  0.00    -0.472 OA
BRANCH  12  13
ATOM     13  C   UNL     1     -25.649   2.717   9.683  1.00  0.00     0.270 A
ATOM     14  N   UNL     1     -24.375   3.117   9.722  1.00  0.00    -0.133 NA
ATOM     15  C   UNL     1     -26.051   1.730  10.687  1.00  0.00     0.207 A
ATOM     16  S   UNL     1     -23.719   2.277  11.005  1.00  0.00     0.074 S
ATOM     17  N   UNL     1     -25.043   1.406  11.509  1.00  0.00    -0.151 NA
BRANCH  15  18
ATOM     18  N   UNL     1     -27.307   1.190  10.808  1.00  0.00    -0.347 N
ATOM     19  C   UNL     1     -27.606  -0.138  10.258  1.00  0.00     0.147 C
ATOM     20  C   UNL     1     -28.420   1.871  11.479  1.00  0.00     0.147 C
ATOM     21  C   UNL     1     -28.678  -0.827  11.117  1.00  0.00     0.181 C
ATOM     22  C   UNL     1     -29.767   1.304  10.996  1.00  0.00     0.181 C
ATOM     23  O   UNL     1     -29.916  -0.106  11.201  1.00  0.00    -0.378 OA
ENDBRANCH  15  18
ENDBRANCH  12  13
ENDBRANCH  11  12
ENDBRANCH   1  11
TORSDOF 8
ENDMDL
MODEL 7
REMARK VINA RESULT:    -6.477      3.195      5.993
REMARK INTER + INTRA:          -9.962
REMARK INTER:                  -9.542
REMARK INTRA:                  -0.420
REMARK UNBOUND:                -0.645
REMARK SMILES CC(C)(C)NCC(O)COc1nsnc1N1CCOCC1
REMARK SMILES IDX 7 1 6 2 5 3 2 5 1 6 3 7 4 8 8 9 9 11 10 12 11 13 12 14 15 15
REMARK SMILES IDX 13 16 14 17 16 18 17 19 21 20 18 21 20 22 19 23
REMARK H PARENT 5 4 8 10
ROOT
ATOM      1  C   UNL     1     -32.039  10.579   7.312  1.00  0.00     0.166 C
ENDROOT
BRANCH   1   2
ATOM      2  C   UNL     1     -32.129   9.122   7.818  1.00  0.00     0.116 C
BRANCH   2   3
ATOM      3  N   UNL     1     -33.275   8.388   7.277  1.00  0.00    -0.309 NA
ATOM      4  H   UNL     1     -33.501   8.740   6.347  1.00  0.00     0.123 HD
BRANCH   3   5
ATOM      5  C   UNL     1     -33.126   6.921   7.201  1.00  0.00     0.010 C
ATOM      6  C   UNL     1     -34.398   6.197   7.672  1.00  0.00     0.027 C
ATOM      7  C   UNL     1     -31.910   6.420   7.996  1.00  0.00     0.027 C
ATOM      8  C   UNL     1     -32.908   6.586   5.711  1.00  0.00     0.027 C
ENDBRANCH   3   5
ENDBRANCH   2   3
ENDBRANCH   1   2
BRANCH   1   9
ATOM      9  O   UNL     1     -32.928  11.389   8.105  1.00  0.00    -0.388 OA
ATOM     10  H   UNL     1     -33.086  10.927   8.946  1.00  0.00     0.211 HD
ENDBRANCH   1   9
BRANCH   1  11
ATOM     11  C   UNL     1     -30.614  11.151   7.374  1.00  0.00     0.264 C
BRANCH  11  12
ATOM     12  O   UNL     1     -29.862  10.594   6.291  1.00  0.00    -0.472 OA
BRANCH  12  13
ATOM     13  C   UNL     1     -28.774  11.315   5.908  1.00  0.00     0.270 A
ATOM     14  N   UNL     1     -28.947  12.555   5.441  1.00  0.00    -0.133 NA
ATOM     15  C   UNL     1     -27.393  10.837   5.985  1.00  0.00     0.207 A
ATOM     16  S   UNL     1     -27.401  13.097   5.129  1.00  0.00     0.074 S
ATOM     17  N   UNL     1     -26.513  11.764   5.581  1.00  0.00    -0.151 NA
BRANCH  15  18
ATOM     18  N   UNL     1     -27.007   9.596   6.427  1.00  0.00    -0.347 N
ATOM     19  C   UNL     1     -27.559   9.041   7.671  1.00  0.00     0.147 C
ATOM     20  C   UNL     1     -26.045   8.745   5.719  1.00  0.00     0.147 C
ATOM     21  C   UNL     1     -27.638   7.510   7.566  1.00  0.00     0.181 C
ATOM     22  C   UNL     1     -25.420   7.720   6.681  1.00  0.00     0.181 C
ATOM     23  O   UNL     1     -26.375   6.871   7.332  1.00  0.00    -0.378 OA
ENDBRANCH  15  18
ENDBRANCH  12  13
ENDBRANCH  11  12
ENDBRANCH   1  11
TORSDOF 8
ENDMDL
MODEL 8
REMARK VINA RESULT:    -6.396      7.370      8.997
REMARK INTER + INTRA:          -9.845
REMARK INTER:                  -9.043
REMARK INTRA:                  -0.802
REMARK UNBOUND:                -0.645
REMARK SMILES CC(C)(C)NCC(O)COc1nsnc1N1CCOCC1
REMARK SMILES IDX 7 1 6 2 5 3 2 5 1 6 3 7 4 8 8 9 9 11 10 12 11 13 12 14 15 15
REMARK SMILES IDX 13 16 14 17 16 18 17 19 21 20 18 21 20 22 19 23
REMARK H PARENT 5 4 8 10
ROOT
ATOM      1  C   UNL     1     -34.305   2.054   9.806  1.00  0.00     0.166 C
ENDROOT
BRANCH   1   2
ATOM      2  C   UNL     1     -33.660   0.775  10.382  1.00  0.00     0.116 C
BRANCH   2   3
ATOM      3  N   UNL     1     -32.435   0.376   9.684  1.00  0.00    -0.309 NA
ATOM      4  H   UNL     1     -32.316   0.946   8.846  1.00  0.00     0.123 HD
BRANCH   3   5
ATOM      5  C   UNL     1     -31.190   0.437  10.475  1.00  0.00     0.010 C
ATOM      6  C   UNL     1     -30.151  -0.581   9.978  1.00  0.00     0.027 C
ATOM      7  C   UNL     1     -31.448   0.235  11.977  1.00  0.00     0.027 C
ATOM      8  C   UNL     1     -30.614   1.852  10.264  1.00  0.00     0.027 C
ENDBRANCH   3   5
ENDBRANCH   2   3
ENDBRANCH   1   2
BRANCH   1   9
ATOM      9  O   UNL     1     -34.003   2.119   8.399  1.00  0.00    -0.388 OA
ATOM     10  H   UNL     1     -34.044   1.216   8.041  1.00  0.00     0.211 HD
ENDBRANCH   1   9
BRANCH   1  11
ATOM     11  C   UNL     1     -35.826   2.108  10.018  1.00  0.00     0.264 C
BRANCH  11  12
ATOM     12  O   UNL     1     -36.412   2.753   8.882  1.00  0.00    -0.472 OA
BRANCH  12  13
ATOM     13  C   UNL     1     -37.026   3.940   9.139  1.00  0.00     0.270 A
ATOM     14  N   UNL     1     -38.309   3.940   9.512  1.00  0.00    -0.133 NA
ATOM     15  C   UNL     1     -36.372   5.247   9.057  1.00  0.00     0.207 A
ATOM     16  S   UNL     1     -38.663   5.550   9.766  1.00  0.00     0.074 S
ATOM     17  N   UNL     1     -37.197   6.247   9.402  1.00  0.00    -0.151 NA
BRANCH  15  18
ATOM     18  N   UNL     1     -35.068   5.459   8.688  1.00  0.00    -0.347 N
ATOM     19  C   UNL     1     -34.721   5.724   7.286  1.00  0.00     0.147 C
ATOM     20  C   UNL     1     -33.945   5.441   9.633  1.00  0.00     0.147 C
ATOM     21  C   UNL     1     -33.493   6.645   7.219  1.00  0.00     0.181 C
ATOM     22  C   UNL     1     -32.623   5.166   8.894  1.00  0.00     0.181 C
ATOM     23  O   UNL     1     -32.324   6.112   7.859  1.00  0.00    -0.378 OA
ENDBRANCH  15  18
ENDBRANCH  12  13
ENDBRANCH  11  12
ENDBRANCH   1  11
TORSDOF 8
ENDMDL
MODEL 9
REMARK VINA RESULT:    -6.321      6.527      7.905
REMARK INTER + INTRA:          -9.737
REMARK INTER:                  -9.036
REMARK INTRA:                  -0.701
REMARK UNBOUND:                -0.645
REMARK SMILES CC(C)(C)NCC(O)COc1nsnc1N1CCOCC1
REMARK SMILES IDX 7 1 6 2 5 3 2 5 1 6 3 7 4 8 8 9 9 11 10 12 11 13 12 14 15 15
REMARK SMILES IDX 13 16 14 17 16 18 17 19 21 20 18 21 20 22 19 23
REMARK H PARENT 5 4 8 10
ROOT
ATOM      1  C   UNL     1     -31.832   2.670   9.944  1.00  0.00     0.166 C
ENDROOT
BRANCH   1   2
ATOM      2  C   UNL     1     -31.434   1.186  10.107  1.00  0.00     0.116 C
BRANCH   2   3
ATOM      3  N   UNL     1     -29.987   0.978  10.202  1.00  0.00    -0.309 NA
ATOM      4  H   UNL     1     -29.499   1.828   9.921  1.00  0.00     0.123 HD
BRANCH   3   5
ATOM      5  C   UNL     1     -29.479   0.559  11.524  1.00  0.00     0.010 C
ATOM      6  C   UNL     1     -28.811  -0.824  11.462  1.00  0.00     0.027 C
ATOM      7  C   UNL     1     -30.580   0.565  12.596  1.00  0.00     0.027 C
ATOM      8  C   UNL     1     -28.405   1.593  11.919  1.00  0.00     0.027 C
ENDBRANCH   3   5
ENDBRANCH   2   3
ENDBRANCH   1   2
BRANCH   1   9
ATOM      9  O   UNL     1     -30.803   3.332   9.182  1.00  0.00    -0.388 OA
ATOM     10  H   UNL     1     -29.952   2.920   9.406  1.00  0.00     0.211 HD
ENDBRANCH   1   9
BRANCH   1  11
ATOM     11  C   UNL     1     -33.194   2.856   9.257  1.00  0.00     0.264 C
BRANCH  11  12
ATOM     12  O   UNL     1     -33.791   4.052   9.767  1.00  0.00    -0.472 OA
BRANCH  12  13
ATOM     13  C   UNL     1     -33.965   5.049   8.858  1.00  0.00     0.270 A
ATOM     14  N   UNL     1     -32.906   5.503   8.181  1.00  0.00    -0.133 NA
ATOM     15  C   UNL     1     -35.253   5.667   8.539  1.00  0.00     0.207 A
ATOM     16  S   UNL     1     -33.536   6.663   7.162  1.00  0.00     0.074 S
ATOM     17  N   UNL     1     -35.145   6.595   7.578  1.00  0.00    -0.151 NA
BRANCH  15  18
ATOM     18  N   UNL     1     -36.452   5.347   9.126  1.00  0.00    -0.347 N
ATOM     19  C   UNL     1     -37.069   4.034   8.898  1.00  0.00     0.147 C
ATOM     20  C   UNL     1     -37.192   6.258  10.005  1.00  0.00     0.147 C
ATOM     21  C   UNL     1     -37.869   3.612  10.140  1.00  0.00     0.181 C
ATOM     22  C   UNL     1     -38.680   5.866  10.058  1.00  0.00     0.181 C
ATOM     23  O   UNL     1     -38.916   4.524  10.503  1.00  0.00    -0.378 OA
ENDBRANCH  15  18
ENDBRANCH  12  13
ENDBRANCH  11  12
ENDBRANCH   1  11
TORSDOF 8
ENDMDL
