MODEL 1
REMARK VINA RESULT:    -7.426      0.000      0.000
REMARK INTER + INTRA:         -11.778
REMARK INTER:                 -11.116
REMARK INTRA:                  -0.662
REMARK UNBOUND:                -0.662
REMARK SMILES CC(C)NCC(O)COc1ccc(CC(N)=O)cc1
REMARK SMILES IDX 8 1 6 2 5 3 4 4 2 6 1 7 3 8 7 9 9 11 10 12 11 13 19 14 12 15
REMARK SMILES IDX 18 16 13 17 14 18 15 19 16 20 17 21
REMARK H PARENT 4 5 7 10 16 22 16 23
ROOT
ATOM      1  C   UNL     1     -26.418   3.560   9.590  1.00  0.00     0.262 C
ENDROOT
BRANCH   1   2
ATOM      2  C   UNL     1     -26.661   2.071   9.302  1.00  0.00     0.165 C
BRANCH   2   3
ATOM      3  C   UNL     1     -25.532   1.182   9.860  1.00  0.00     0.116 C
BRANCH   3   4
ATOM      4  N   UNL     1     -24.251   1.306   9.152  1.00  0.00    -0.312 NA
ATOM      5  H   UNL     1     -24.315   2.115   8.529  1.00  0.00     0.123 HD
BRANCH   4   6
ATOM      6  C   UNL     1     -23.020   1.406   9.946  1.00  0.00     0.047 C
ATOM      7  C   UNL     1     -22.495   0.089  10.516  1.00  0.00     0.024 C
ATOM      8  C   UNL     1     -23.113   2.477  11.036  1.00  0.00     0.024 C
ENDBRANCH   4   6
ENDBRANCH   3   4
ENDBRANCH   2   3
BRANCH   2   9
ATOM      9  O   UNL     1     -27.913   1.672   9.884  1.00  0.00    -0.388 OA
ATOM     10  H   UNL     1     -28.487   2.461   9.851  1.00  0.00     0.211 HD
ENDBRANCH   2   9
ENDBRANCH   1   2
BRANCH   1  11
ATOM     11  O   UNL     1     -25.557   4.092   8.576  1.00  0.00    -0.491 OA
BRANCH  11  12
ATOM     12  C   UNL     1     -25.862   5.333   8.089  1.00  0.00     0.119 A
ATOM     13  C   UNL     1     -27.149   5.779   8.396  1.00  0.00     0.047 A
ATOM     14  C   UNL     1     -25.020   6.149   7.335  1.00  0.00     0.047 A
ATOM     15  C   UNL     1     -27.594   7.029   7.960  1.00  0.00     0.008 A
ATOM     16  C   UNL     1     -25.462   7.401   6.896  1.00  0.00     0.008 A
ATOM     17  C   UNL     1     -26.754   7.852   7.202  1.00  0.00    -0.038 A
BRANCH  17  18
ATOM     18  C   UNL     1     -27.227   9.200   6.715  1.00  0.00     0.135 C
BRANCH  18  19
ATOM     19  C   UNL     1     -26.373   9.774   5.601  1.00  0.00     0.221 C
ATOM     20  N   UNL     1     -26.688   9.364   4.334  1.00  0.00    -0.369 N
ATOM     21  O   UNL     1     -25.480  10.593   5.789  1.00  0.00    -0.275 OA
ATOM     22  H   UNL     1     -27.157   8.480   4.193  1.00  0.00     0.159 HD
ATOM     23  H   UNL     1     -26.053   9.667   3.606  1.00  0.00     0.159 HD
ENDBRANCH  18  19
ENDBRANCH  17  18
ENDBRANCH  11  12
ENDBRANCH   1  11
TORSDOF 9
ENDMDL
MODEL 2
REMARK VINA RESULT:    -7.402      2.425      8.195
REMARK INTER + INTRA:         -11.742
REMARK INTER:                 -10.912
REMARK INTRA:                  -0.830
REMARK UNBOUND:                -0.662
REMARK SMILES CC(C)NCC(O)COc1ccc(CC(N)=O)cc1
REMARK SMILES IDX 8 1 6 2 5 3 4 4 2 6 1 7 3 8 7 9 9 11 10 12 11 13 19 14 12 15
REMARK SMILES IDX 18 16 13 17 14 18 15 19 16 20 17 21
REMARK H PARENT 4 5 7 10 16 22 16 23
ROOT
ATOM      1  C   UNL     1     -26.760   9.355   5.177  1.00  0.00     0.262 C
ENDROOT
BRANCH   1   2
ATOM      2  C   UNL     1     -26.813  10.871   4.929  1.00  0.00     0.165 C
BRANCH   2   3
ATOM      3  C   UNL     1     -27.963  11.544   5.706  1.00  0.00     0.116 C
BRANCH   3   4
ATOM      4  N   UNL     1     -28.470  10.765   6.842  1.00  0.00    -0.312 NA
ATOM      5  H   UNL     1     -27.956  11.058   7.677  1.00  0.00     0.123 HD
BRANCH   4   6
ATOM      6  C   UNL     1     -29.910  10.801   7.128  1.00  0.00     0.047 C
ATOM      7  C   UNL     1     -30.599   9.439   7.213  1.00  0.00     0.024 C
ATOM      8  C   UNL     1     -30.669  11.742   6.188  1.00  0.00     0.024 C
ENDBRANCH   4   6
ENDBRANCH   3   4
ENDBRANCH   2   3
BRANCH   2   9
ATOM      9  O   UNL     1     -25.564  11.461   5.322  1.00  0.00    -0.388 OA
ATOM     10  H   UNL     1     -24.869  10.941   4.874  1.00  0.00     0.211 HD
ENDBRANCH   2   9
ENDBRANCH   1   2
BRANCH   1  11
ATOM     11  O   UNL     1     -25.976   9.107   6.350  1.00  0.00    -0.491 OA
BRANCH  11  12
ATOM     12  C   UNL     1     -26.106   7.878   6.936  1.00  0.00     0.119 A
ATOM     13  C   UNL     1     -27.339   7.653   7.550  1.00  0.00     0.047 A
ATOM     14  C   UNL     1     -25.135   6.879   6.972  1.00  0.00     0.047 A
ATOM     15  C   UNL     1     -27.609   6.441   8.190  1.00  0.00     0.008 A
ATOM     16  C   UNL     1     -25.400   5.663   7.611  1.00  0.00     0.008 A
ATOM     17  C   UNL     1     -26.638   5.434   8.228  1.00  0.00    -0.038 A
BRANCH  17  18
ATOM     18  C   UNL     1     -26.913   4.123   8.926  1.00  0.00     0.135 C
BRANCH  18  19
ATOM     19  C   UNL     1     -25.921   3.808  10.029  1.00  0.00     0.221 C
ATOM     20  N   UNL     1     -26.144   4.425  11.229  1.00  0.00    -0.369 N
ATOM     21  O   UNL     1     -24.994   3.015   9.897  1.00  0.00    -0.275 OA
ATOM     22  H   UNL     1     -26.658   5.295  11.261  1.00  0.00     0.159 HD
ATOM     23  H   UNL     1     -25.424   4.293  11.929  1.00  0.00     0.159 HD
ENDBRANCH  18  19
ENDBRANCH  17  18
ENDBRANCH  11  12
ENDBRANCH   1  11
TORSDOF 9
ENDMDL
MODEL 3
REMARK VINA RESULT:    -7.386      1.529      1.705
REMARK INTER + INTRA:         -11.718
REMARK INTER:                 -11.285
REMARK INTRA:                  -0.433
REMARK UNBOUND:                -0.662
REMARK SMILES CC(C)NCC(O)COc1ccc(CC(N)=O)cc1
REMARK SMILES IDX 8 1 6 2 5 3 4 4 2 6 1 7 3 8 7 9 9 11 10 12 11 13 19 14 12 15
REMARK SMILES IDX 18 16 13 17 14 18 15 19 16 20 17 21
REMARK H PARENT 4 5 7 10 16 22 16 23
ROOT
ATOM      1  C   UNL     1     -26.431   3.910   9.224  1.00  0.00     0.262 C
ENDROOT
BRANCH   1   2
ATOM      2  C   UNL     1     -25.775   3.647  10.588  1.00  0.00     0.165 C
BRANCH   2   3
ATOM      3  C   UNL     1     -24.271   3.986  10.582  1.00  0.00     0.116 C
BRANCH   3   4
ATOM      4  N   UNL     1     -23.407   2.937  11.139  1.00  0.00    -0.312 NA
ATOM      5  H   UNL     1     -23.682   2.790  12.114  1.00  0.00     0.123 HD
BRANCH   4   6
ATOM      6  C   UNL     1     -23.351   1.640  10.454  1.00  0.00     0.047 C
ATOM      7  C   UNL     1     -24.035   0.482  11.181  1.00  0.00     0.024 C
ATOM      8  C   UNL     1     -21.927   1.260  10.036  1.00  0.00     0.024 C
ENDBRANCH   4   6
ENDBRANCH   3   4
ENDBRANCH   2   3
BRANCH   2   9
ATOM      9  O   UNL     1     -26.436   4.433  11.593  1.00  0.00    -0.388 OA
ATOM     10  H   UNL     1     -25.917   5.257  11.672  1.00  0.00     0.211 HD
ENDBRANCH   2   9
ENDBRANCH   1   2
BRANCH   1  11
ATOM     11  O   UNL     1     -25.474   4.543   8.366  1.00  0.00    -0.491 OA
BRANCH  11  12
ATOM     12  C   UNL     1     -25.793   5.783   7.886  1.00  0.00     0.119 A
ATOM     13  C   UNL     1     -27.108   6.183   8.134  1.00  0.00     0.047 A
ATOM     14  C   UNL     1     -24.941   6.638   7.188  1.00  0.00     0.047 A
ATOM     15  C   UNL     1     -27.570   7.426   7.697  1.00  0.00     0.008 A
ATOM     16  C   UNL     1     -25.401   7.884   6.748  1.00  0.00     0.008 A
ATOM     17  C   UNL     1     -26.720   8.288   6.996  1.00  0.00    -0.038 A
BRANCH  17  18
ATOM     18  C   UNL     1     -27.211   9.630   6.509  1.00  0.00     0.135 C
BRANCH  18  19
ATOM     19  C   UNL     1     -26.633  10.034   5.166  1.00  0.00     0.221 C
ATOM     20  N   UNL     1     -25.904  11.191   5.152  1.00  0.00    -0.369 N
ATOM     21  O   UNL     1     -26.756   9.359   4.149  1.00  0.00    -0.275 OA
ATOM     22  H   UNL     1     -26.072  11.902   5.852  1.00  0.00     0.159 HD
ATOM     23  H   UNL     1     -25.608  11.510   4.237  1.00  0.00     0.159 HD
ENDBRANCH  18  19
ENDBRANCH  17  18
ENDBRANCH  11  12
ENDBRANCH   1  11
TORSDOF 9
ENDMDL
MODEL 4
REMARK VINA RESULT:    -7.287      6.366      7.907
REMARK INTER + INTRA:         -11.569
REMARK INTER:                 -11.215
REMARK INTRA:                  -0.355
REMARK UNBOUND:                -0.662
REMARK SMILES CC(C)NCC(O)COc1ccc(CC(N)=O)cc1
REMARK SMILES IDX 8 1 6 2 5 3 4 4 2 6 1 7 3 8 7 9 9 11 10 12 11 13 19 14 12 15
REMARK SMILES IDX 18 16 13 17 14 18 15 19 16 20 17 21
REMARK H PARENT 4 5 7 10 16 22 16 23
ROOT
ATOM      1  C   UNL     1     -32.341   6.992   7.169  1.00  0.00     0.262 C
ENDROOT
BRANCH   1   2
ATOM      2  C   UNL     1     -33.817   6.578   7.262  1.00  0.00     0.165 C
BRANCH   2   3
ATOM      3  C   UNL     1     -34.040   5.455   8.295  1.00  0.00     0.116 C
BRANCH   3   4
ATOM      4  N   UNL     1     -34.963   5.801   9.383  1.00  0.00    -0.312 NA
ATOM      5  H   UNL     1     -35.868   6.031   8.965  1.00  0.00     0.123 HD
BRANCH   4   6
ATOM      6  C   UNL     1     -35.167   4.827  10.463  1.00  0.00     0.047 C
ATOM      7  C   UNL     1     -36.612   4.659  10.934  1.00  0.00     0.024 C
ATOM      8  C   UNL     1     -34.228   5.064  11.650  1.00  0.00     0.024 C
ENDBRANCH   4   6
ENDBRANCH   3   4
ENDBRANCH   2   3
BRANCH   2   9
ATOM      9  O   UNL     1     -34.610   7.721   7.623  1.00  0.00    -0.388 OA
ATOM     10  H   UNL     1     -35.536   7.477   7.428  1.00  0.00     0.211 HD
ENDBRANCH   2   9
ENDBRANCH   1   2
BRANCH   1  11
ATOM     11  O   UNL     1     -32.205   8.332   7.661  1.00  0.00    -0.491 OA
BRANCH  11  12
ATOM     12  C   UNL     1     -31.090   9.025   7.278  1.00  0.00     0.119 A
ATOM     13  C   UNL     1     -29.918   8.267   7.241  1.00  0.00     0.047 A
ATOM     14  C   UNL     1     -31.039  10.377   6.944  1.00  0.00     0.047 A
ATOM     15  C   UNL     1     -28.704   8.849   6.868  1.00  0.00     0.008 A
ATOM     16  C   UNL     1     -29.825  10.963   6.571  1.00  0.00     0.008 A
ATOM     17  C   UNL     1     -28.646  10.206   6.532  1.00  0.00    -0.038 A
BRANCH  17  18
ATOM     18  C   UNL     1     -27.338  10.849   6.138  1.00  0.00     0.135 C
BRANCH  18  19
ATOM     19  C   UNL     1     -26.430   9.931   5.342  1.00  0.00     0.221 C
ATOM     20  N   UNL     1     -25.263   9.564   5.955  1.00  0.00    -0.369 N
ATOM     21  O   UNL     1     -26.719   9.492   4.234  1.00  0.00    -0.275 OA
ATOM     22  H   UNL     1     -24.864  10.154   6.673  1.00  0.00     0.159 HD
ATOM     23  H   UNL     1     -24.615   9.038   5.382  1.00  0.00     0.159 HD
ENDBRANCH  18  19
ENDBRANCH  17  18
ENDBRANCH  11  12
ENDBRANCH   1  11
TORSDOF 9
ENDMDL
MODEL 5
REMARK VINA RESULT:    -7.239      2.790      3.647
REMARK INTER + INTRA:         -11.497
REMARK INTER:                 -11.151
REMARK INTRA:                  -0.347
REMARK UNBOUND:                -0.662
REMARK SMILES CC(C)NCC(O)COc1ccc(CC(N)=O)cc1
REMARK SMILES IDX 8 1 6 2 5 3 4 4 2 6 1 7 3 8 7 9 9 11 10 12 11 13 19 14 12 15
REMARK SMILES IDX 18 16 13 17 14 18 15 19 16 20 17 21
REMARK H PARENT 4 5 7 10 16 22 16 23
ROOT
ATOM      1  C   UNL     1     -27.065   6.042   8.356  1.00  0.00     0.262 C
ENDROOT
BRANCH   1   2
ATOM      2  C   UNL     1     -26.380   4.677   8.520  1.00  0.00     0.165 C
BRANCH   2   3
ATOM      3  C   UNL     1     -25.419   4.652   9.726  1.00  0.00     0.116 C
BRANCH   3   4
ATOM      4  N   UNL     1     -26.081   4.529  11.031  1.00  0.00    -0.312 NA
ATOM      5  H   UNL     1     -27.090   4.603  10.878  1.00  0.00     0.123 HD
BRANCH   4   6
ATOM      6  C   UNL     1     -25.805   3.339  11.846  1.00  0.00     0.047 C
ATOM      7  C   UNL     1     -24.852   2.320  11.221  1.00  0.00     0.024 C
ATOM      8  C   UNL     1     -27.085   2.660  12.342  1.00  0.00     0.024 C
ENDBRANCH   4   6
ENDBRANCH   3   4
ENDBRANCH   2   3
BRANCH   2   9
ATOM      9  O   UNL     1     -27.380   3.659   8.688  1.00  0.00    -0.388 OA
ATOM     10  H   UNL     1     -27.104   2.916   8.117  1.00  0.00     0.211 HD
ENDBRANCH   2   9
ENDBRANCH   1   2
BRANCH   1  11
ATOM     11  O   UNL     1     -26.388   6.779   7.331  1.00  0.00    -0.491 OA
BRANCH  11  12
ATOM     12  C   UNL     1     -26.939   7.973   6.956  1.00  0.00     0.119 A
ATOM     13  C   UNL     1     -28.200   8.228   7.498  1.00  0.00     0.047 A
ATOM     14  C   UNL     1     -26.363   8.910   6.101  1.00  0.00     0.047 A
ATOM     15  C   UNL     1     -28.881   9.410   7.197  1.00  0.00     0.008 A
ATOM     16  C   UNL     1     -27.041  10.095   5.796  1.00  0.00     0.008 A
ATOM     17  C   UNL     1     -28.307  10.355   6.340  1.00  0.00    -0.038 A
BRANCH  17  18
ATOM     18  C   UNL     1     -29.037  11.632   5.998  1.00  0.00     0.135 C
BRANCH  18  19
ATOM     19  C   UNL     1     -30.335  11.808   6.763  1.00  0.00     0.221 C
ATOM     20  N   UNL     1     -31.472  11.419   6.111  1.00  0.00    -0.369 N
ATOM     21  O   UNL     1     -30.387  12.228   7.915  1.00  0.00    -0.275 OA
ATOM     22  H   UNL     1     -31.493  11.401   5.100  1.00  0.00     0.159 HD
ATOM     23  H   UNL     1     -32.342  11.634   6.583  1.00  0.00     0.159 HD
ENDBRANCH  18  19
ENDBRANCH  17  18
ENDBRANCH  11  12
ENDBRANCH   1  11
TORSDOF 9
ENDMDL
MODEL 6
REMARK VINA RESULT:    -7.120      1.930      3.203
REMARK INTER + INTRA:         -11.320
REMARK INTER:                 -10.846
REMARK INTRA:                  -0.474
REMARK UNBOUND:                -0.662
REMARK SMILES CC(C)NCC(O)COc1ccc(CC(N)=O)cc1
REMARK SMILES IDX 8 1 6 2 5 3 4 4 2 6 1 7 3 8 7 9 9 11 10 12 11 13 19 14 12 15
REMARK SMILES IDX 18 16 13 17 14 18 15 19 16 20 17 21
REMARK H PARENT 4 5 7 10 16 22 16 23
ROOT
ATOM      1  C   UNL     1     -25.414   4.092   9.828  1.00  0.00     0.262 C
ENDROOT
BRANCH   1   2
ATOM      2  C   UNL     1     -26.062   2.720  10.071  1.00  0.00     0.165 C
BRANCH   2   3
ATOM      3  C   UNL     1     -27.368   2.833  10.883  1.00  0.00     0.116 C
BRANCH   3   4
ATOM      4  N   UNL     1     -28.571   2.382  10.171  1.00  0.00    -0.312 NA
ATOM      5  H   UNL     1     -28.286   2.078   9.237  1.00  0.00     0.123 HD
BRANCH   4   6
ATOM      6  C   UNL     1     -29.396   1.334  10.786  1.00  0.00     0.047 C
ATOM      7  C   UNL     1     -29.358   1.278  12.313  1.00  0.00     0.024 C
ATOM      8  C   UNL     1     -29.132  -0.048  10.180  1.00  0.00     0.024 C
ENDBRANCH   4   6
ENDBRANCH   3   4
ENDBRANCH   2   3
BRANCH   2   9
ATOM      9  O   UNL     1     -26.340   2.095   8.807  1.00  0.00    -0.388 OA
ATOM     10  H   UNL     1     -25.533   1.598   8.571  1.00  0.00     0.211 HD
ENDBRANCH   2   9
ENDBRANCH   1   2
BRANCH   1  11
ATOM     11  O   UNL     1     -25.421   4.364   8.422  1.00  0.00    -0.491 OA
BRANCH  11  12
ATOM     12  C   UNL     1     -25.970   5.550   8.020  1.00  0.00     0.119 A
ATOM     13  C   UNL     1     -25.118   6.361   7.269  1.00  0.00     0.047 A
ATOM     14  C   UNL     1     -27.261   5.993   8.301  1.00  0.00     0.047 A
ATOM     15  C   UNL     1     -25.549   7.603   6.795  1.00  0.00     0.008 A
ATOM     16  C   UNL     1     -27.697   7.235   7.829  1.00  0.00     0.008 A
ATOM     17  C   UNL     1     -26.844   8.053   7.074  1.00  0.00    -0.038 A
BRANCH  17  18
ATOM     18  C   UNL     1     -27.318   9.398   6.576  1.00  0.00     0.135 C
BRANCH  18  19
ATOM     19  C   UNL     1     -26.399  10.016   5.541  1.00  0.00     0.221 C
ATOM     20  N   UNL     1     -26.607   9.626   4.247  1.00  0.00    -0.369 N
ATOM     21  O   UNL     1     -25.544  10.854   5.812  1.00  0.00    -0.275 OA
ATOM     22  H   UNL     1     -27.040   8.733   4.053  1.00  0.00     0.159 HD
ATOM     23  H   UNL     1     -25.927   9.961   3.575  1.00  0.00     0.159 HD
ENDBRANCH  18  19
ENDBRANCH  17  18
ENDBRANCH  11  12
ENDBRANCH   1  11
TORSDOF 9
ENDMDL
MODEL 7
REMARK VINA RESULT:    -7.041      7.637     10.767
REMARK INTER + INTRA:         -11.201
REMARK INTER:                 -10.600
REMARK INTRA:                  -0.601
REMARK UNBOUND:                -0.662
REMARK SMILES CC(C)NCC(O)COc1ccc(CC(N)=O)cc1
REMARK SMILES IDX 8 1 6 2 5 3 4 4 2 6 1 7 3 8 7 9 9 11 10 12 11 13 19 14 12 15
REMARK SMILES IDX 18 16 13 17 14 18 15 19 16 20 17 21
REMARK H PARENT 4 5 7 10 16 22 16 23
ROOT
ATOM      1  C   UNL     1     -32.879   7.493   6.429  1.00  0.00     0.262 C
ENDROOT
BRANCH   1   2
ATOM      2  C   UNL     1     -32.191   8.543   7.314  1.00  0.00     0.165 C
BRANCH   2   3
ATOM      3  C   UNL     1     -31.113   9.333   6.544  1.00  0.00     0.116 C
BRANCH   3   4
ATOM      4  N   UNL     1     -31.487  10.714   6.214  1.00  0.00    -0.312 NA
ATOM      5  H   UNL     1     -32.379  10.915   6.673  1.00  0.00     0.123 HD
BRANCH   4   6
ATOM      6  C   UNL     1     -30.536  11.790   6.524  1.00  0.00     0.047 C
ATOM      7  C   UNL     1     -29.133  11.615   5.943  1.00  0.00     0.024 C
ATOM      8  C   UNL     1     -30.474  12.101   8.022  1.00  0.00     0.024 C
ENDBRANCH   4   6
ENDBRANCH   3   4
ENDBRANCH   2   3
BRANCH   2   9
ATOM      9  O   UNL     1     -33.177   9.456   7.823  1.00  0.00    -0.388 OA
ATOM     10  H   UNL     1     -33.448   9.101   8.692  1.00  0.00     0.211 HD
ENDBRANCH   2   9
ENDBRANCH   1   2
BRANCH   1  11
ATOM     11  O   UNL     1     -32.619   6.192   6.970  1.00  0.00    -0.491 OA
BRANCH  11  12
ATOM     12  C   UNL     1     -33.470   5.741   7.940  1.00  0.00     0.119 A
ATOM     13  C   UNL     1     -34.824   5.957   7.675  1.00  0.00     0.047 A
ATOM     14  C   UNL     1     -33.102   5.115   9.130  1.00  0.00     0.047 A
ATOM     15  C   UNL     1     -35.804   5.548   8.582  1.00  0.00     0.008 A
ATOM     16  C   UNL     1     -34.080   4.704  10.041  1.00  0.00     0.008 A
ATOM     17  C   UNL     1     -35.440   4.919   9.777  1.00  0.00    -0.038 A
BRANCH  17  18
ATOM     18  C   UNL     1     -36.489   4.483  10.771  1.00  0.00     0.135 C
BRANCH  18  19
ATOM     19  C   UNL     1     -37.331   5.627  11.302  1.00  0.00     0.221 C
ATOM     20  N   UNL     1     -36.661   6.584  12.012  1.00  0.00    -0.369 N
ATOM     21  O   UNL     1     -38.533   5.738  11.082  1.00  0.00    -0.275 OA
ATOM     22  H   UNL     1     -35.793   6.352  12.477  1.00  0.00     0.159 HD
ATOM     23  H   UNL     1     -37.241   7.290  12.450  1.00  0.00     0.159 HD
ENDBRANCH  18  19
ENDBRANCH  17  18
ENDBRANCH  11  12
ENDBRANCH   1  11
TORSDOF 9
ENDMDL
MODEL 8
REMARK VINA RESULT:    -6.973      1.684      2.188
REMARK INTER + INTRA:         -11.100
REMARK INTER:                 -10.748
REMARK INTRA:                  -0.352
REMARK UNBOUND:                -0.662
REMARK SMILES CC(C)NCC(O)COc1ccc(CC(N)=O)cc1
REMARK SMILES IDX 8 1 6 2 5 3 4 4 2 6 1 7 3 8 7 9 9 11 10 12 11 13 19 14 12 15
REMARK SMILES IDX 18 16 13 17 14 18 15 19 16 20 17 21
REMARK H PARENT 4 5 7 10 16 22 16 23
ROOT
ATOM      1  C   UNL     1     -25.550   4.541   9.777  1.00  0.00     0.262 C
ENDROOT
BRANCH   1   2
ATOM      2  C   UNL     1     -25.336   3.042  10.040  1.00  0.00     0.165 C
BRANCH   2   3
ATOM      3  C   UNL     1     -26.362   2.171   9.288  1.00  0.00     0.116 C
BRANCH   3   4
ATOM      4  N   UNL     1     -25.848   0.869   8.843  1.00  0.00    -0.312 NA
ATOM      5  H   UNL     1     -24.858   0.985   8.613  1.00  0.00     0.123 HD
BRANCH   4   6
ATOM      6  C   UNL     1     -26.001  -0.286   9.737  1.00  0.00     0.047 C
ATOM      7  C   UNL     1     -27.174  -0.211  10.714  1.00  0.00     0.024 C
ATOM      8  C   UNL     1     -24.701  -0.635  10.468  1.00  0.00     0.024 C
ENDBRANCH   4   6
ENDBRANCH   3   4
ENDBRANCH   2   3
BRANCH   2   9
ATOM      9  O   UNL     1     -24.008   2.672   9.632  1.00  0.00    -0.388 OA
ATOM     10  H   UNL     1     -23.970   2.832   8.669  1.00  0.00     0.211 HD
ENDBRANCH   2   9
ENDBRANCH   1   2
BRANCH   1  11
ATOM     11  O   UNL     1     -26.703   4.703   8.943  1.00  0.00    -0.491 OA
BRANCH  11  12
ATOM     12  C   UNL     1     -26.818   5.885   8.264  1.00  0.00     0.119 A
ATOM     13  C   UNL     1     -28.022   6.560   8.471  1.00  0.00     0.047 A
ATOM     14  C   UNL     1     -25.865   6.437   7.411  1.00  0.00     0.047 A
ATOM     15  C   UNL     1     -28.275   7.780   7.837  1.00  0.00     0.008 A
ATOM     16  C   UNL     1     -26.113   7.658   6.775  1.00  0.00     0.008 A
ATOM     17  C   UNL     1     -27.321   8.339   6.980  1.00  0.00    -0.038 A
BRANCH  17  18
ATOM     18  C   UNL     1     -27.586   9.651   6.281  1.00  0.00     0.135 C
BRANCH  18  19
ATOM     19  C   UNL     1     -26.553   9.992   5.224  1.00  0.00     0.221 C
ATOM     20  N   UNL     1     -25.520  10.789   5.633  1.00  0.00    -0.369 N
ATOM     21  O   UNL     1     -26.591   9.555   4.078  1.00  0.00    -0.275 OA
ATOM     22  H   UNL     1     -25.643  11.409   6.423  1.00  0.00     0.159 HD
ATOM     23  H   UNL     1     -24.890  11.097   4.902  1.00  0.00     0.159 HD
ENDBRANCH  18  19
ENDBRANCH  17  18
ENDBRANCH  11  12
ENDBRANCH   1  11
TORSDOF 9
ENDMDL
MODEL 9
REMARK VINA RESULT:    -6.858      2.722      8.128
REMARK INTER + INTRA:         -10.927
REMARK INTER:                 -10.481
REMARK INTRA:                  -0.446
REMARK UNBOUND:                -0.662
REMARK SMILES CC(C)NCC(O)COc1ccc(CC(N)=O)cc1
REMARK SMILES IDX 8 1 6 2 5 3 4 4 2 6 1 7 3 8 7 9 9 11 10 12 11 13 19 14 12 15
REMARK SMILES IDX 18 16 13 17 14 18 15 19 16 20 17 21
REMARK H PARENT 4 5 7 10 16 22 16 23
ROOT
ATOM      1  C   UNL     1     -26.033   5.830   7.943  1.00  0.00     0.262 C
ENDROOT
BRANCH   1   2
ATOM      2  C   UNL     1     -25.065   6.810   7.260  1.00  0.00     0.165 C
BRANCH   2   3
ATOM      3  C   UNL     1     -25.810   7.879   6.435  1.00  0.00     0.116 C
BRANCH   3   4
ATOM      4  N   UNL     1     -26.124   9.109   7.172  1.00  0.00    -0.312 NA
ATOM      5  H   UNL     1     -25.537   9.858   6.796  1.00  0.00     0.123 HD
BRANCH   4   6
ATOM      6  C   UNL     1     -27.520   9.566   7.209  1.00  0.00     0.047 C
ATOM      7  C   UNL     1     -28.573   8.459   7.251  1.00  0.00     0.024 C
ATOM      8  C   UNL     1     -27.832  10.579   6.103  1.00  0.00     0.024 C
ENDBRANCH   4   6
ENDBRANCH   3   4
ENDBRANCH   2   3
BRANCH   2   9
ATOM      9  O   UNL     1     -24.259   7.456   8.259  1.00  0.00    -0.388 OA
ATOM     10  H   UNL     1     -23.739   8.133   7.786  1.00  0.00     0.211 HD
ENDBRANCH   2   9
ENDBRANCH   1   2
BRANCH   1  11
ATOM     11  O   UNL     1     -25.337   5.153   8.997  1.00  0.00    -0.491 OA
BRANCH  11  12
ATOM     12  C   UNL     1     -26.078   4.338   9.807  1.00  0.00     0.119 A
ATOM     13  C   UNL     1     -25.567   4.177  11.096  1.00  0.00     0.047 A
ATOM     14  C   UNL     1     -27.253   3.677   9.452  1.00  0.00     0.047 A
ATOM     15  C   UNL     1     -26.222   3.369  12.028  1.00  0.00     0.008 A
ATOM     16  C   UNL     1     -27.911   2.866  10.383  1.00  0.00     0.008 A
ATOM     17  C   UNL     1     -27.401   2.703  11.678  1.00  0.00    -0.038 A
BRANCH  17  18
ATOM     18  C   UNL     1     -28.112   1.818  12.674  1.00  0.00     0.135 C
BRANCH  18  19
ATOM     19  C   UNL     1     -27.683   0.365  12.604  1.00  0.00     0.221 C
ATOM     20  N   UNL     1     -27.183  -0.167  13.760  1.00  0.00    -0.369 N
ATOM     21  O   UNL     1     -27.810  -0.328  11.600  1.00  0.00    -0.275 OA
ATOM     22  H   UNL     1     -26.767   0.438  14.455  1.00  0.00     0.159 HD
ATOM     23  H   UNL     1     -26.803  -1.103  13.682  1.00  0.00     0.159 HD
ENDBRANCH  18  19
ENDBRANCH  17  18
ENDBRANCH  11  12
ENDBRANCH   1  11
TORSDOF 9
ENDMDL
