MODEL 1
REMARK VINA RESULT:    -8.629      0.000      0.000
REMARK INTER + INTRA:         -12.588
REMARK INTER:                 -11.909
REMARK INTRA:                  -0.680
REMARK UNBOUND:                -0.680
REMARK SMILES CC(C)NCC(O)COc1cccc2ccccc12
REMARK SMILES IDX 5 1 4 2 2 4 1 5 3 6 6 7 7 8 8 10 9 11 10 12 11 13 19 14
REMARK SMILES IDX 12 15 18 16 14 17 13 18 17 19 15 20 16 21
REMARK H PARENT 4 3 7 9
ROOT
ATOM      1  C   UNL     1     -25.875   6.987   6.614  1.00  0.00     0.116 C
ENDROOT
BRANCH   1   2
ATOM      2  N   UNL     1     -25.382   5.758   7.268  1.00  0.00    -0.312 NA
ATOM      3  H   UNL     1     -25.107   5.080   6.554  1.00  0.00     0.123 HD
BRANCH   2   4
ATOM      4  C   UNL     1     -26.376   5.152   8.164  1.00  0.00     0.047 C
ATOM      5  C   UNL     1     -27.477   6.188   8.405  1.00  0.00     0.024 C
ATOM      6  C   UNL     1     -25.774   4.716   9.501  1.00  0.00     0.024 C
ENDBRANCH   2   4
ENDBRANCH   1   2
BRANCH   1   7
ATOM      7  C   UNL     1     -24.781   8.068   6.701  1.00  0.00     0.165 C
BRANCH   7   8
ATOM      8  O   UNL     1     -24.211   8.045   8.020  1.00  0.00    -0.388 OA
ATOM      9  H   UNL     1     -23.248   7.956   7.866  1.00  0.00     0.211 HD
ENDBRANCH   7   8
BRANCH   7  10
ATOM     10  C   UNL     1     -25.300   9.475   6.374  1.00  0.00     0.262 C
BRANCH  10  11
ATOM     11  O   UNL     1     -26.336   9.415   5.380  1.00  0.00    -0.490 OA
BRANCH  11  12
ATOM     12  C   UNL     1     -27.149  10.521   5.431  1.00  0.00     0.127 A
ATOM     13  C   UNL     1     -26.664  11.734   4.936  1.00  0.00     0.047 A
ATOM     14  C   UNL     1     -28.419  10.432   6.039  1.00  0.00     0.024 A
ATOM     15  C   UNL     1     -27.457  12.874   5.000  1.00  0.00     0.004 A
ATOM     16  C   UNL     1     -28.926   9.235   6.587  1.00  0.00     0.012 A
ATOM     17  C   UNL     1     -29.220  11.597   6.099  1.00  0.00    -0.015 A
ATOM     18  C   UNL     1     -28.728  12.805   5.573  1.00  0.00     0.009 A
ATOM     19  C   UNL     1     -30.194   9.187   7.170  1.00  0.00     0.001 A
ATOM     20  C   UNL     1     -30.493  11.531   6.688  1.00  0.00     0.009 A
ATOM     21  C   UNL     1     -30.977  10.334   7.219  1.00  0.00     0.001 A
ENDBRANCH  11  12
ENDBRANCH  10  11
ENDBRANCH   7  10
ENDBRANCH   1   7
TORSDOF 7
ENDMDL
MODEL 2
REMARK VINA RESULT:    -8.613      1.177      1.770
REMARK INTER + INTRA:         -12.566
REMARK INTER:                 -11.969
REMARK INTRA:                  -0.597
REMARK UNBOUND:                -0.680
REMARK SMILES CC(C)NCC(O)COc1cccc2ccccc12
REMARK SMILES IDX 5 1 4 2 2 4 1 5 3 6 6 7 7 8 8 10 9 11 10 12 11 13 19 14
REMARK SMILES IDX 12 15 18 16 14 17 13 18 17 19 15 20 16 21
REMARK H PARENT 4 3 7 9
ROOT
ATOM      1  C   UNL     1     -25.379   5.493   7.689  1.00  0.00     0.116 C
ENDROOT
BRANCH   1   2
ATOM      2  N   UNL     1     -26.088   5.740   8.960  1.00  0.00    -0.312 NA
ATOM      3  H   UNL     1     -25.647   6.520   9.451  1.00  0.00     0.123 HD
BRANCH   2   4
ATOM      4  C   UNL     1     -26.114   4.560   9.836  1.00  0.00     0.047 C
ATOM      5  C   UNL     1     -24.680   4.297  10.303  1.00  0.00     0.024 C
ATOM      6  C   UNL     1     -26.665   3.318   9.133  1.00  0.00     0.024 C
ENDBRANCH   2   4
ENDBRANCH   1   2
BRANCH   1   7
ATOM      7  C   UNL     1     -25.018   6.849   7.051  1.00  0.00     0.165 C
BRANCH   7   8
ATOM      8  O   UNL     1     -24.376   7.670   8.040  1.00  0.00    -0.388 OA
ATOM      9  H   UNL     1     -25.110   7.974   8.615  1.00  0.00     0.211 HD
ENDBRANCH   7   8
BRANCH   7  10
ATOM     10  C   UNL     1     -26.235   7.579   6.468  1.00  0.00     0.262 C
BRANCH  10  11
ATOM     11  O   UNL     1     -26.657   8.640   7.340  1.00  0.00    -0.490 OA
BRANCH  11  12
ATOM     12  C   UNL     1     -26.858   9.811   6.652  1.00  0.00     0.127 A
ATOM     13  C   UNL     1     -25.758  10.441   6.063  1.00  0.00     0.047 A
ATOM     14  C   UNL     1     -28.144  10.389   6.609  1.00  0.00     0.024 A
ATOM     15  C   UNL     1     -25.931  11.641   5.382  1.00  0.00     0.004 A
ATOM     16  C   UNL     1     -29.271   9.804   7.225  1.00  0.00     0.012 A
ATOM     17  C   UNL     1     -28.311  11.610   5.913  1.00  0.00    -0.015 A
ATOM     18  C   UNL     1     -27.200  12.218   5.303  1.00  0.00     0.009 A
ATOM     19  C   UNL     1     -30.529  10.403   7.149  1.00  0.00     0.001 A
ATOM     20  C   UNL     1     -29.585  12.199   5.845  1.00  0.00     0.009 A
ATOM     21  C   UNL     1     -30.686  11.599   6.458  1.00  0.00     0.001 A
ENDBRANCH  11  12
ENDBRANCH  10  11
ENDBRANCH   7  10
ENDBRANCH   1   7
TORSDOF 7
ENDMDL
MODEL 3
REMARK VINA RESULT:    -8.297      1.420      2.982
REMARK INTER + INTRA:         -12.129
REMARK INTER:                 -11.430
REMARK INTRA:                  -0.699
REMARK UNBOUND:                -0.680
REMARK SMILES CC(C)NCC(O)COc1cccc2ccccc12
REMARK SMILES IDX 5 1 4 2 2 4 1 5 3 6 6 7 7 8 8 10 9 11 10 12 11 13 19 14
REMARK SMILES IDX 12 15 18 16 14 17 13 18 17 19 15 20 16 21
REMARK H PARENT 4 3 7 9
ROOT
ATOM      1  C   UNL     1     -25.346   5.916   7.203  1.00  0.00     0.116 C
ENDROOT
BRANCH   1   2
ATOM      2  N   UNL     1     -25.588   5.831   8.657  1.00  0.00    -0.312 NA
ATOM      3  H   UNL     1     -24.811   6.268   9.158  1.00  0.00     0.123 HD
BRANCH   2   4
ATOM      4  C   UNL     1     -25.758   4.449   9.125  1.00  0.00     0.047 C
ATOM      5  C   UNL     1     -27.217   4.053   8.887  1.00  0.00     0.024 C
ATOM      6  C   UNL     1     -25.411   4.283  10.606  1.00  0.00     0.024 C
ENDBRANCH   2   4
ENDBRANCH   1   2
BRANCH   1   7
ATOM      7  C   UNL     1     -25.002   7.374   6.842  1.00  0.00     0.165 C
BRANCH   7   8
ATOM      8  O   UNL     1     -24.319   7.977   7.953  1.00  0.00    -0.388 OA
ATOM      9  H   UNL     1     -25.016   8.483   8.420  1.00  0.00     0.211 HD
ENDBRANCH   7   8
BRANCH   7  10
ATOM     10  C   UNL     1     -26.236   8.206   6.466  1.00  0.00     0.262 C
BRANCH  10  11
ATOM     11  O   UNL     1     -26.864   8.743   7.642  1.00  0.00    -0.490 OA
BRANCH  11  12
ATOM     12  C   UNL     1     -28.225   8.568   7.613  1.00  0.00     0.127 A
ATOM     13  C   UNL     1     -28.752   7.335   8.009  1.00  0.00     0.047 A
ATOM     14  C   UNL     1     -29.055   9.598   7.124  1.00  0.00     0.024 A
ATOM     15  C   UNL     1     -30.125   7.124   7.963  1.00  0.00     0.004 A
ATOM     16  C   UNL     1     -28.557  10.840   6.677  1.00  0.00     0.012 A
ATOM     17  C   UNL     1     -30.452   9.374   7.081  1.00  0.00    -0.015 A
ATOM     18  C   UNL     1     -30.970   8.138   7.508  1.00  0.00     0.009 A
ATOM     19  C   UNL     1     -29.415  11.837   6.210  1.00  0.00     0.001 A
ATOM     20  C   UNL     1     -31.302  10.388   6.610  1.00  0.00     0.009 A
ATOM     21  C   UNL     1     -30.787  11.612   6.179  1.00  0.00     0.001 A
ENDBRANCH  11  12
ENDBRANCH  10  11
ENDBRANCH   7  10
ENDBRANCH   1   7
TORSDOF 7
ENDMDL
MODEL 4
REMARK VINA RESULT:    -8.238      4.089      6.129
REMARK INTER + INTRA:         -12.048
REMARK INTER:                 -11.705
REMARK INTRA:                  -0.343
REMARK UNBOUND:                -0.680
REMARK SMILES CC(C)NCC(O)COc1cccc2ccccc12
REMARK SMILES IDX 5 1 4 2 2 4 1 5 3 6 6 7 7 8 8 10 9 11 10 12 11 13 19 14
REMARK SMILES IDX 12 15 18 16 14 17 13 18 17 19 15 20 16 21
REMARK H PARENT 4 3 7 9
ROOT
ATOM      1  C   UNL     1     -33.476   7.318   6.910  1.00  0.00     0.116 C
ENDROOT
BRANCH   1   2
ATOM      2  N   UNL     1     -34.646   7.091   7.781  1.00  0.00    -0.312 NA
ATOM      3  H   UNL     1     -34.468   7.496   8.703  1.00  0.00     0.123 HD
BRANCH   2   4
ATOM      4  C   UNL     1     -34.980   5.668   7.926  1.00  0.00     0.047 C
ATOM      5  C   UNL     1     -36.245   5.572   8.782  1.00  0.00     0.024 C
ATOM      6  C   UNL     1     -33.853   4.863   8.576  1.00  0.00     0.024 C
ENDBRANCH   2   4
ENDBRANCH   1   2
BRANCH   1   7
ATOM      7  C   UNL     1     -32.552   8.355   7.578  1.00  0.00     0.165 C
BRANCH   7   8
ATOM      8  O   UNL     1     -33.337   9.498   7.955  1.00  0.00    -0.388 OA
ATOM      9  H   UNL     1     -33.943   9.158   8.646  1.00  0.00     0.211 HD
ENDBRANCH   7   8
BRANCH   7  10
ATOM     10  C   UNL     1     -31.387   8.788   6.679  1.00  0.00     0.262 C
BRANCH  10  11
ATOM     11  O   UNL     1     -30.541   9.728   7.362  1.00  0.00    -0.490 OA
BRANCH  11  12
ATOM     12  C   UNL     1     -29.232   9.609   6.967  1.00  0.00     0.127 A
ATOM     13  C   UNL     1     -28.543   8.432   7.272  1.00  0.00     0.047 A
ATOM     14  C   UNL     1     -28.589  10.691   6.328  1.00  0.00     0.024 A
ATOM     15  C   UNL     1     -27.208   8.297   6.906  1.00  0.00     0.004 A
ATOM     16  C   UNL     1     -29.240  11.909   6.040  1.00  0.00     0.012 A
ATOM     17  C   UNL     1     -27.231  10.544   5.959  1.00  0.00    -0.015 A
ATOM     18  C   UNL     1     -26.559   9.344   6.249  1.00  0.00     0.009 A
ATOM     19  C   UNL     1     -28.570  12.952   5.396  1.00  0.00     0.001 A
ATOM     20  C   UNL     1     -26.573  11.602   5.310  1.00  0.00     0.009 A
ATOM     21  C   UNL     1     -27.238  12.797   5.030  1.00  0.00     0.001 A
ENDBRANCH  11  12
ENDBRANCH  10  11
ENDBRANCH   7  10
ENDBRANCH   1   7
TORSDOF 7
ENDMDL
MODEL 5
REMARK VINA RESULT:    -8.212      3.851      5.742
REMARK INTER + INTRA:         -12.012
REMARK INTER:                 -11.786
REMARK INTRA:                  -0.226
REMARK UNBOUND:                -0.680
REMARK SMILES CC(C)NCC(O)COc1cccc2ccccc12
REMARK SMILES IDX 5 1 4 2 2 4 1 5 3 6 6 7 7 8 8 10 9 11 10 12 11 13 19 14
REMARK SMILES IDX 12 15 18 16 14 17 13 18 17 19 15 20 16 21
REMARK H PARENT 4 3 7 9
ROOT
ATOM      1  C   UNL     1     -32.863   7.593   6.935  1.00  0.00     0.116 C
ENDROOT
BRANCH   1   2
ATOM      2  N   UNL     1     -34.269   7.360   7.320  1.00  0.00    -0.312 NA
ATOM      3  H   UNL     1     -34.449   7.787   8.231  1.00  0.00     0.123 HD
BRANCH   2   4
ATOM      4  C   UNL     1     -34.617   5.933   7.369  1.00  0.00     0.047 C
ATOM      5  C   UNL     1     -33.858   5.309   8.542  1.00  0.00     0.024 C
ATOM      6  C   UNL     1     -34.265   5.198   6.074  1.00  0.00     0.024 C
ENDBRANCH   2   4
ENDBRANCH   1   2
BRANCH   1   7
ATOM      7  C   UNL     1     -32.369   8.883   7.618  1.00  0.00     0.165 C
BRANCH   7   8
ATOM      8  O   UNL     1     -33.509   9.669   8.001  1.00  0.00    -0.388 OA
ATOM      9  H   UNL     1     -33.808  10.085   7.166  1.00  0.00     0.211 HD
ENDBRANCH   7   8
BRANCH   7  10
ATOM     10  C   UNL     1     -31.431   9.711   6.729  1.00  0.00     0.262 C
BRANCH  10  11
ATOM     11  O   UNL     1     -30.535  10.498   7.531  1.00  0.00    -0.490 OA
BRANCH  11  12
ATOM     12  C   UNL     1     -29.450  10.923   6.805  1.00  0.00     0.127 A
ATOM     13  C   UNL     1     -29.520  12.158   6.155  1.00  0.00     0.047 A
ATOM     14  C   UNL     1     -28.322  10.086   6.672  1.00  0.00     0.024 A
ATOM     15  C   UNL     1     -28.444  12.600   5.393  1.00  0.00     0.004 A
ATOM     16  C   UNL     1     -28.231   8.816   7.280  1.00  0.00     0.012 A
ATOM     17  C   UNL     1     -27.232  10.544   5.895  1.00  0.00    -0.015 A
ATOM     18  C   UNL     1     -27.306  11.801   5.268  1.00  0.00     0.009 A
ATOM     19  C   UNL     1     -27.092   8.023   7.132  1.00  0.00     0.001 A
ATOM     20  C   UNL     1     -26.092   9.735   5.757  1.00  0.00     0.009 A
ATOM     21  C   UNL     1     -26.022   8.484   6.372  1.00  0.00     0.001 A
ENDBRANCH  11  12
ENDBRANCH  10  11
ENDBRANCH   7  10
ENDBRANCH   1   7
TORSDOF 7
ENDMDL
MODEL 6
REMARK VINA RESULT:    -8.131      1.194      2.992
REMARK INTER + INTRA:         -11.901
REMARK INTER:                 -11.524
REMARK INTRA:                  -0.376
REMARK UNBOUND:                -0.680
REMARK SMILES CC(C)NCC(O)COc1cccc2ccccc12
REMARK SMILES IDX 5 1 4 2 2 4 1 5 3 6 6 7 7 8 8 10 9 11 10 12 11 13 19 14
REMARK SMILES IDX 12 15 18 16 14 17 13 18 17 19 15 20 16 21
REMARK H PARENT 4 3 7 9
ROOT
ATOM      1  C   UNL     1     -25.069   5.616   8.718  1.00  0.00     0.116 C
ENDROOT
BRANCH   1   2
ATOM      2  N   UNL     1     -25.811   4.381   8.395  1.00  0.00    -0.312 NA
ATOM      3  H   UNL     1     -26.568   4.598   7.745  1.00  0.00     0.123 HD
BRANCH   2   4
ATOM      4  C   UNL     1     -26.360   3.720   9.587  1.00  0.00     0.047 C
ATOM      5  C   UNL     1     -25.461   4.075  10.772  1.00  0.00     0.024 C
ATOM      6  C   UNL     1     -26.438   2.200   9.432  1.00  0.00     0.024 C
ENDBRANCH   2   4
ENDBRANCH   1   2
BRANCH   1   7
ATOM      7  C   UNL     1     -25.285   6.635   7.582  1.00  0.00     0.165 C
BRANCH   7   8
ATOM      8  O   UNL     1     -24.385   7.739   7.774  1.00  0.00    -0.388 OA
ATOM      9  H   UNL     1     -23.493   7.335   7.725  1.00  0.00     0.211 HD
ENDBRANCH   7   8
BRANCH   7  10
ATOM     10  C   UNL     1     -26.731   7.141   7.496  1.00  0.00     0.262 C
BRANCH  10  11
ATOM     11  O   UNL     1     -26.872   8.097   6.432  1.00  0.00    -0.490 OA
BRANCH  11  12
ATOM     12  C   UNL     1     -27.990   8.876   6.599  1.00  0.00     0.127 A
ATOM     13  C   UNL     1     -29.131   8.302   7.166  1.00  0.00     0.047 A
ATOM     14  C   UNL     1     -27.992  10.209   6.137  1.00  0.00     0.024 A
ATOM     15  C   UNL     1     -30.284   9.063   7.322  1.00  0.00     0.004 A
ATOM     16  C   UNL     1     -26.874  10.811   5.523  1.00  0.00     0.012 A
ATOM     17  C   UNL     1     -29.170  10.976   6.300  1.00  0.00    -0.015 A
ATOM     18  C   UNL     1     -30.301  10.392   6.897  1.00  0.00     0.009 A
ATOM     19  C   UNL     1     -26.914  12.138   5.089  1.00  0.00     0.001 A
ATOM     20  C   UNL     1     -29.193  12.310   5.860  1.00  0.00     0.009 A
ATOM     21  C   UNL     1     -28.073  12.887   5.260  1.00  0.00     0.001 A
ENDBRANCH  11  12
ENDBRANCH  10  11
ENDBRANCH   7  10
ENDBRANCH   1   7
TORSDOF 7
ENDMDL
MODEL 7
REMARK VINA RESULT:    -7.590      4.576      6.332
REMARK INTER + INTRA:         -11.154
REMARK INTER:                 -10.750
REMARK INTRA:                  -0.404
REMARK UNBOUND:                -0.680
REMARK SMILES CC(C)NCC(O)COc1cccc2ccccc12
REMARK SMILES IDX 5 1 4 2 2 4 1 5 3 6 6 7 7 8 8 10 9 11 10 12 11 13 19 14
REMARK SMILES IDX 12 15 18 16 14 17 13 18 17 19 15 20 16 21
REMARK H PARENT 4 3 7 9
ROOT
ATOM      1  C   UNL     1     -34.380   6.442   7.089  1.00  0.00     0.116 C
ENDROOT
BRANCH   1   2
ATOM      2  N   UNL     1     -35.096   6.613   8.368  1.00  0.00    -0.312 NA
ATOM      3  H   UNL     1     -34.426   6.844   9.105  1.00  0.00     0.123 HD
BRANCH   2   4
ATOM      4  C   UNL     1     -35.861   5.420   8.756  1.00  0.00     0.047 C
ATOM      5  C   UNL     1     -35.556   5.130  10.227  1.00  0.00     0.024 C
ATOM      6  C   UNL     1     -35.515   4.197   7.904  1.00  0.00     0.024 C
ENDBRANCH   2   4
ENDBRANCH   1   2
BRANCH   1   7
ATOM      7  C   UNL     1     -32.871   6.639   7.333  1.00  0.00     0.165 C
BRANCH   7   8
ATOM      8  O   UNL     1     -32.592   6.396   8.721  1.00  0.00    -0.388 OA
ATOM      9  H   UNL     1     -33.429   6.029   9.075  1.00  0.00     0.211 HD
ENDBRANCH   7   8
BRANCH   7  10
ATOM     10  C   UNL     1     -32.376   8.034   6.931  1.00  0.00     0.262 C
BRANCH  10  11
ATOM     11  O   UNL     1     -31.332   8.477   7.816  1.00  0.00    -0.490 OA
BRANCH  11  12
ATOM     12  C   UNL     1     -30.645   9.544   7.292  1.00  0.00     0.127 A
ATOM     13  C   UNL     1     -31.351  10.708   6.978  1.00  0.00     0.047 A
ATOM     14  C   UNL     1     -29.266   9.425   7.018  1.00  0.00     0.024 A
ATOM     15  C   UNL     1     -30.682  11.793   6.422  1.00  0.00     0.004 A
ATOM     16  C   UNL     1     -28.528   8.252   7.283  1.00  0.00     0.012 A
ATOM     17  C   UNL     1     -28.594  10.534   6.453  1.00  0.00    -0.015 A
ATOM     18  C   UNL     1     -29.313  11.709   6.166  1.00  0.00     0.009 A
ATOM     19  C   UNL     1     -27.162   8.179   7.007  1.00  0.00     0.001 A
ATOM     20  C   UNL     1     -27.218  10.446   6.182  1.00  0.00     0.009 A
ATOM     21  C   UNL     1     -26.508   9.277   6.458  1.00  0.00     0.001 A
ENDBRANCH  11  12
ENDBRANCH  10  11
ENDBRANCH   7  10
ENDBRANCH   1   7
TORSDOF 7
ENDMDL
MODEL 8
REMARK VINA RESULT:    -7.485      7.561      9.591
REMARK INTER + INTRA:         -11.008
REMARK INTER:                 -10.145
REMARK INTRA:                  -0.864
REMARK UNBOUND:                -0.680
REMARK SMILES CC(C)NCC(O)COc1cccc2ccccc12
REMARK SMILES IDX 5 1 4 2 2 4 1 5 3 6 6 7 7 8 8 10 9 11 10 12 11 13 19 14
REMARK SMILES IDX 12 15 18 16 14 17 13 18 17 19 15 20 16 21
REMARK H PARENT 4 3 7 9
ROOT
ATOM      1  C   UNL     1     -36.234   2.913   9.924  1.00  0.00     0.116 C
ENDROOT
BRANCH   1   2
ATOM      2  N   UNL     1     -37.484   3.496   9.399  1.00  0.00    -0.312 NA
ATOM      3  H   UNL     1     -37.333   3.821   8.442  1.00  0.00     0.123 HD
BRANCH   2   4
ATOM      4  C   UNL     1     -37.983   4.607  10.222  1.00  0.00     0.047 C
ATOM      5  C   UNL     1     -38.502   5.691   9.274  1.00  0.00     0.024 C
ATOM      6  C   UNL     1     -36.906   5.191  11.137  1.00  0.00     0.024 C
ENDBRANCH   2   4
ENDBRANCH   1   2
BRANCH   1   7
ATOM      7  C   UNL     1     -35.535   2.136   8.792  1.00  0.00     0.165 C
BRANCH   7   8
ATOM      8  O   UNL     1     -34.532   1.283   9.367  1.00  0.00    -0.388 OA
ATOM      9  H   UNL     1     -33.689   1.755   9.201  1.00  0.00     0.211 HD
ENDBRANCH   7   8
BRANCH   7  10
ATOM     10  C   UNL     1     -34.905   3.053   7.734  1.00  0.00     0.262 C
BRANCH  10  11
ATOM     11  O   UNL     1     -35.099   4.434   8.080  1.00  0.00    -0.490 OA
BRANCH  11  12
ATOM     12  C   UNL     1     -33.907   5.111   8.142  1.00  0.00     0.127 A
ATOM     13  C   UNL     1     -33.155   5.040   9.318  1.00  0.00     0.047 A
ATOM     14  C   UNL     1     -33.498   5.915   7.057  1.00  0.00     0.024 A
ATOM     15  C   UNL     1     -31.956   5.737   9.415  1.00  0.00     0.004 A
ATOM     16  C   UNL     1     -34.249   6.044   5.870  1.00  0.00     0.012 A
ATOM     17  C   UNL     1     -32.276   6.621   7.165  1.00  0.00    -0.015 A
ATOM     18  C   UNL     1     -31.517   6.518   8.344  1.00  0.00     0.009 A
ATOM     19  C   UNL     1     -33.803   6.842   4.815  1.00  0.00     0.001 A
ATOM     20  C   UNL     1     -31.840   7.417   6.093  1.00  0.00     0.009 A
ATOM     21  C   UNL     1     -32.598   7.526   4.926  1.00  0.00     0.001 A
ENDBRANCH  11  12
ENDBRANCH  10  11
ENDBRANCH   7  10
ENDBRANCH   1   7
TORSDOF 7
ENDMDL
MODEL 9
REMARK VINA RESULT:    -7.434      3.982      6.450
REMARK INTER + INTRA:         -10.939
REMARK INTER:                 -10.290
REMARK INTRA:                  -0.649
REMARK UNBOUND:                -0.680
REMARK SMILES CC(C)NCC(O)COc1cccc2ccccc12
REMARK SMILES IDX 5 1 4 2 2 4 1 5 3 6 6 7 7 8 8 10 9 11 10 12 11 13 19 14
REMARK SMILES IDX 12 15 18 16 14 17 13 18 17 19 15 20 16 21
REMARK H PARENT 4 3 7 9
ROOT
ATOM      1  C   UNL     1     -29.307  11.218   6.768  1.00  0.00     0.116 C
ENDROOT
BRANCH   1   2
ATOM      2  N   UNL     1     -28.377  10.153   7.190  1.00  0.00    -0.312 NA
ATOM      3  H   UNL     1     -28.080  10.320   8.154  1.00  0.00     0.123 HD
BRANCH   2   4
ATOM      4  C   UNL     1     -27.195  10.053   6.323  1.00  0.00     0.047 C
ATOM      5  C   UNL     1     -27.113  11.341   5.499  1.00  0.00     0.024 C
ATOM      6  C   UNL     1     -27.251   8.843   5.389  1.00  0.00     0.024 C
ENDBRANCH   2   4
ENDBRANCH   1   2
BRANCH   1   7
ATOM      7  C   UNL     1     -30.641  10.573   6.344  1.00  0.00     0.165 C
BRANCH   7   8
ATOM      8  O   UNL     1     -31.631  11.605   6.206  1.00  0.00    -0.388 OA
ATOM      9  H   UNL     1     -32.480  11.152   6.388  1.00  0.00     0.211 HD
ENDBRANCH   7   8
BRANCH   7  10
ATOM     10  C   UNL     1     -31.129   9.502   7.329  1.00  0.00     0.262 C
BRANCH  10  11
ATOM     11  O   UNL     1     -30.718   8.193   6.901  1.00  0.00    -0.490 OA
BRANCH  11  12
ATOM     12  C   UNL     1     -31.790   7.432   6.504  1.00  0.00     0.127 A
ATOM     13  C   UNL     1     -32.363   7.679   5.254  1.00  0.00     0.047 A
ATOM     14  C   UNL     1     -32.332   6.471   7.383  1.00  0.00     0.024 A
ATOM     15  C   UNL     1     -33.465   6.940   4.840  1.00  0.00     0.004 A
ATOM     16  C   UNL     1     -31.807   6.222   8.668  1.00  0.00     0.012 A
ATOM     17  C   UNL     1     -33.454   5.723   6.953  1.00  0.00    -0.015 A
ATOM     18  C   UNL     1     -34.003   5.965   5.682  1.00  0.00     0.009 A
ATOM     19  C   UNL     1     -32.368   5.254   9.504  1.00  0.00     0.001 A
ATOM     20  C   UNL     1     -34.005   4.751   7.805  1.00  0.00     0.009 A
ATOM     21  C   UNL     1     -33.465   4.518   9.070  1.00  0.00     0.001 A
ENDBRANCH  11  12
ENDBRANCH  10  11
ENDBRANCH   7  10
ENDBRANCH   1   7
TORSDOF 7
ENDMDL
